
     RDKit          3D

 50 53  0  0  0  0  0  0  0  0999 V2000
   -3.5181   -2.9236   -0.4732 C   0  0  0  0  0  0  0  0  0  0  0  0
   -3.2937   -1.8118    0.4003 N   0  0  0  0  0  0  0  0  0  0  0  0
   -2.0321   -1.8341    1.1214 C   0  0  0  0  0  0  0  0  0  0  0  0
   -1.5128   -0.7054    0.2673 C   0  0  0  0  0  0  0  0  0  0  0  0
   -0.9821    0.4338    1.0618 C   0  0  0  0  0  0  0  0  0  0  0  0
    0.3081    0.0038    1.7498 C   0  0  0  0  0  0  0  0  0  0  0  0
    1.2346   -0.5010    0.7365 N   0  0  0  0  0  0  0  0  0  0  0  0
    2.5109    0.0743    0.5856 C   0  0  0  0  0  0  0  0  0  0  0  0
    2.7846    1.0190    1.3582 O   0  0  0  0  0  0  0  0  0  0  0  0
    3.4375   -0.3650   -0.3639 N   0  0  0  0  0  0  0  0  0  0  0  0
    4.7183    0.2252   -0.5171 C   0  0  0  0  0  0  0  0  0  0  0  0
    5.0775    1.4644   -0.0812 C   0  0  0  0  0  0  0  0  0  0  0  0
    6.3758    1.9628   -0.2520 C   0  0  0  0  0  0  0  0  0  0  0  0
    6.6848    3.1871    0.1933 F   0  0  0  0  0  0  0  0  0  0  0  0
    7.2994    1.1789   -0.8739 C   0  0  0  0  0  0  0  0  0  0  0  0
    6.9762   -0.0811   -1.3306 C   0  0  0  0  0  0  0  0  0  0  0  0
    7.9566   -0.7996   -1.9412 F   0  0  0  0  0  0  0  0  0  0  0  0
    5.7132   -0.5315   -1.1489 C   0  0  0  0  0  0  0  0  0  0  0  0
    0.7764   -1.5894   -0.0737 C   0  0  0  0  0  0  0  0  0  0  0  0
   -0.4996   -1.1344   -0.7805 C   0  0  0  0  0  0  0  0  0  0  0  0
   -2.9022   -0.5691   -0.2477 C   0  0  2  0  0  0  0  0  0  0  0  0
   -3.6927    0.5876    0.2067 C   0  0  0  0  0  0  0  0  0  0  0  0
   -4.1161    0.7594    1.4983 C   0  0  0  0  0  0  0  0  0  0  0  0
   -4.8418    1.8792    1.8366 C   0  0  0  0  0  0  0  0  0  0  0  0
   -5.1801    2.8642    0.9401 C   0  0  0  0  0  0  0  0  0  0  0  0
   -6.1049    4.2700    1.4200 Cl  0  0  0  0  0  0  0  0  0  0  0  0
   -4.7516    2.6860   -0.3589 C   0  0  0  0  0  0  0  0  0  0  0  0
   -4.0264    1.5784   -0.7221 C   0  0  0  0  0  0  0  0  0  0  0  0
   -4.5663   -3.2740   -0.3051 H   0  0  0  0  0  0  0  0  0  0  0  0
   -3.4419   -2.6841   -1.5473 H   0  0  0  0  0  0  0  0  0  0  0  0
   -2.8733   -3.7976   -0.2528 H   0  0  0  0  0  0  0  0  0  0  0  0
   -2.1330   -1.6236    2.1931 H   0  0  0  0  0  0  0  0  0  0  0  0
   -1.4320   -2.7489    0.9655 H   0  0  0  0  0  0  0  0  0  0  0  0
   -0.6881    1.2804    0.3996 H   0  0  0  0  0  0  0  0  0  0  0  0
   -1.6895    0.7553    1.8202 H   0  0  0  0  0  0  0  0  0  0  0  0
    0.1455   -0.7757    2.4907 H   0  0  0  0  0  0  0  0  0  0  0  0
    0.7319    0.8936    2.2479 H   0  0  0  0  0  0  0  0  0  0  0  0
    3.2032   -1.1824   -1.0261 H   0  0  0  0  0  0  0  0  0  0  0  0
    4.3475    2.1055    0.3998 H   0  0  0  0  0  0  0  0  0  0  0  0
    8.3228    1.5475   -1.0192 H   0  0  0  0  0  0  0  0  0  0  0  0
    5.4701   -1.5220   -1.5112 H   0  0  0  0  0  0  0  0  0  0  0  0
    1.4880   -1.9556   -0.8197 H   0  0  0  0  0  0  0  0  0  0  0  0
    0.5320   -2.4173    0.6468 H   0  0  0  0  0  0  0  0  0  0  0  0
   -0.8948   -1.9702   -1.3547 H   0  0  0  0  0  0  0  0  0  0  0  0
   -0.2586   -0.2669   -1.3938 H   0  0  0  0  0  0  0  0  0  0  0  0
   -2.8938   -0.6366   -1.3620 H   0  0  0  0  0  0  0  0  0  0  0  0
   -3.8809   -0.0036    2.2598 H   0  0  0  0  0  0  0  0  0  0  0  0
   -5.1846    2.0268    2.8646 H   0  0  0  0  0  0  0  0  0  0  0  0
   -4.9951    3.4413   -1.1102 H   0  0  0  0  0  0  0  0  0  0  0  0
   -3.7089    1.4799   -1.7614 H   0  0  0  0  0  0  0  0  0  0  0  0
  1  2  1  0
  2  3  1  0
  3  4  1  0
  4  5  1  0
  5  6  1  0
  6  7  1  0
  7  8  1  0
  8  9  2  0
  8 10  1  0
 10 11  1  0
 11 12  2  0
 12 13  1  0
 13 14  1  0
 13 15  2  0
 15 16  1  0
 16 17  1  0
 16 18  2  0
  7 19  1  0
 19 20  1  0
  4 21  1  0
 21 22  1  0
 22 23  2  0
 23 24  1  0
 24 25  2  0
 25 26  1  0
 25 27  1  0
 27 28  2  0
 21  2  1  0
 28 22  1  0
 20  4  1  0
 18 11  1  0
  1 29  1  0
  1 30  1  0
  1 31  1  0
  3 32  1  0
  3 33  1  0
  5 34  1  0
  5 35  1  0
  6 36  1  0
  6 37  1  0
 10 38  1  0
 12 39  1  0
 15 40  1  0
 18 41  1  0
 19 42  1  0
 19 43  1  0
 20 44  1  0
 20 45  1  0
 21 46  1  6
 23 47  1  0
 24 48  1  0
 27 49  1  0
 28 50  1  0
M  END
>  <fragInfo>  (1) 
2 3 4 5 6 7 19 20 21 32 33 34 35 36 37 42 43 44 45 46
1 29 30 31
8 9 10 38
11 12 13 14 15 16 17 18 39 40 41
22 23 24 25 26 27 28 47 48 49 50


>  <torsionInfo>  (1) 
1 2 1 0
7 8 0 2
21 22 0 4
10 11 2 3


>  <atomInfo>  (1) 
1  -0.0127225C 
2  -0.2981299NA
3  0.00609974C 
4  0.00611772C 
5  -0.0265494C 
6  0.02288250C 
7  -0.3244906N 
8  0.32134179C 
9  -0.2482699OA
10 -0.3076294N 
11 0.04820000A 
12 -0.0023614A 
13 0.12769352A 
14 -0.2068170F 
15 0.00971451A 
16 0.12769352A 
17 -0.2068170F 
18 -0.0023614A 
19 0.02288250C 
20 -0.0265494C 
21 0.04146602C 
22 -0.0301054A 
23 -0.0559524A 
24 -0.0431945A 
25 0.04057034A 
26 -0.0843441Cl
27 -0.0431945A 
28 -0.0559524A 
29 0.03942911H 
30 0.03942911H 
31 0.03942911H 
32 0.04372378H 
33 0.04372378H 
34 0.02915953H 
35 0.02915953H 
36 0.04946914H 
37 0.04946914H 
38 0.17137277HD
39 0.06758253H 
40 0.06847673H 
41 0.06758253H 
42 0.04946914H 
43 0.04946914H 
44 0.02915953H 
45 0.02915953H 
46 0.05246462H 
47 0.06267426H 
48 0.06385130H 
49 0.06385130H 
50 0.06267426H 


$$$$
