
     RDKit          3D

 56 59  0  0  0  0  0  0  0  0999 V2000
   -3.6742   -2.2979   -2.1972 C   0  0  0  0  0  0  0  0  0  0  0  0
   -3.8459   -1.8736   -0.7839 C   0  0  0  0  0  0  0  0  0  0  0  0
   -3.9950   -3.1353    0.0737 C   0  0  0  0  0  0  0  0  0  0  0  0
   -2.8642   -1.0677   -0.2058 N   0  0  0  0  0  0  0  0  0  0  0  0
   -1.5278   -1.4672   -0.0289 C   0  0  0  0  0  0  0  0  0  0  0  0
   -1.0849   -0.1290   -0.6421 C   0  0  0  0  0  0  0  0  0  0  0  0
   -0.2359    0.7166    0.2412 C   0  0  0  0  0  0  0  0  0  0  0  0
    1.0093    1.1410   -0.5675 C   0  0  0  0  0  0  0  0  0  0  0  0
    1.7060   -0.0689   -0.8594 N   0  0  0  0  0  0  0  0  0  0  0  0
    3.0272   -0.3337   -0.4501 C   0  0  0  0  0  0  0  0  0  0  0  0
    3.5809   -1.4495   -0.7526 O   0  0  0  0  0  0  0  0  0  0  0  0
    3.7712    0.5929    0.2878 N   0  0  0  0  0  0  0  0  0  0  0  0
    5.1094    0.4028    0.7312 C   0  0  0  0  0  0  0  0  0  0  0  0
    5.6065    1.2422    1.7440 C   0  0  0  0  0  0  0  0  0  0  0  0
    6.8889    1.1445    2.2199 C   0  0  0  0  0  0  0  0  0  0  0  0
    7.7638    0.1996    1.7153 C   0  0  0  0  0  0  0  0  0  0  0  0
    9.0227    0.1322    2.2097 F   0  0  0  0  0  0  0  0  0  0  0  0
    7.3152   -0.6353    0.7278 C   0  0  0  0  0  0  0  0  0  0  0  0
    8.1579   -1.5580    0.2295 F   0  0  0  0  0  0  0  0  0  0  0  0
    5.9975   -0.5200    0.2526 C   0  0  0  0  0  0  0  0  0  0  0  0
    0.9440   -1.0598   -1.6401 C   0  0  0  0  0  0  0  0  0  0  0  0
   -0.3946   -0.4369   -1.9587 C   0  0  0  0  0  0  0  0  0  0  0  0
   -2.5376    0.2138   -0.7471 C   0  0  2  0  0  0  0  0  0  0  0  0
   -3.0585    1.2630    0.1617 C   0  0  0  0  0  0  0  0  0  0  0  0
   -2.9424    1.1662    1.5256 C   0  0  0  0  0  0  0  0  0  0  0  0
   -3.4443    2.1754    2.3231 C   0  0  0  0  0  0  0  0  0  0  0  0
   -4.0629    3.2854    1.7851 C   0  0  0  0  0  0  0  0  0  0  0  0
   -4.6972    4.5653    2.8349 Cl  0  0  0  0  0  0  0  0  0  0  0  0
   -4.1836    3.3904    0.4155 C   0  0  0  0  0  0  0  0  0  0  0  0
   -3.6752    2.3694   -0.3741 C   0  0  0  0  0  0  0  0  0  0  0  0
   -4.6301   -2.8082   -2.5097 H   0  0  0  0  0  0  0  0  0  0  0  0
   -2.8808   -3.0611   -2.3291 H   0  0  0  0  0  0  0  0  0  0  0  0
   -3.5539   -1.4508   -2.8966 H   0  0  0  0  0  0  0  0  0  0  0  0
   -4.8312   -1.3286   -0.7196 H   0  0  0  0  0  0  0  0  0  0  0  0
   -5.0754   -3.3215    0.3048 H   0  0  0  0  0  0  0  0  0  0  0  0
   -3.5216   -4.0042   -0.4230 H   0  0  0  0  0  0  0  0  0  0  0  0
   -3.4707   -3.0086    1.0532 H   0  0  0  0  0  0  0  0  0  0  0  0
   -1.2655   -2.3590   -0.6007 H   0  0  0  0  0  0  0  0  0  0  0  0
   -1.1601   -1.4975    1.0318 H   0  0  0  0  0  0  0  0  0  0  0  0
    0.1816    0.1483    1.1040 H   0  0  0  0  0  0  0  0  0  0  0  0
   -0.7495    1.6628    0.5857 H   0  0  0  0  0  0  0  0  0  0  0  0
    0.6793    1.6693   -1.4967 H   0  0  0  0  0  0  0  0  0  0  0  0
    1.5120    1.8730    0.0596 H   0  0  0  0  0  0  0  0  0  0  0  0
    3.3241    1.5394    0.5536 H   0  0  0  0  0  0  0  0  0  0  0  0
    4.9394    1.9853    2.1513 H   0  0  0  0  0  0  0  0  0  0  0  0
    7.2720    1.7987    3.0071 H   0  0  0  0  0  0  0  0  0  0  0  0
    5.7016   -1.1910   -0.5309 H   0  0  0  0  0  0  0  0  0  0  0  0
    0.7846   -1.9871   -1.0879 H   0  0  0  0  0  0  0  0  0  0  0  0
    1.5377   -1.2670   -2.5622 H   0  0  0  0  0  0  0  0  0  0  0  0
   -0.9838   -1.2709   -2.4325 H   0  0  0  0  0  0  0  0  0  0  0  0
   -0.3614    0.3996   -2.6552 H   0  0  0  0  0  0  0  0  0  0  0  0
   -2.8572    0.3662   -1.8186 H   0  0  0  0  0  0  0  0  0  0  0  0
   -2.4526    0.2879    1.9715 H   0  0  0  0  0  0  0  0  0  0  0  0
   -3.3372    2.0700    3.3944 H   0  0  0  0  0  0  0  0  0  0  0  0
   -4.6724    4.2702    0.0249 H   0  0  0  0  0  0  0  0  0  0  0  0
   -3.8049    2.5170   -1.4505 H   0  0  0  0  0  0  0  0  0  0  0  0
  1  2  1  0
  2  3  1  0
  2  4  1  0
  4  5  1  0
  5  6  1  0
  6  7  1  0
  7  8  1  0
  8  9  1  0
  9 10  1  0
 10 11  2  0
 10 12  1  0
 12 13  1  0
 13 14  2  0
 14 15  1  0
 15 16  2  0
 16 17  1  0
 16 18  1  0
 18 19  1  0
 18 20  2  0
  9 21  1  0
 21 22  1  0
  6 23  1  0
 23 24  1  0
 24 25  2  0
 25 26  1  0
 26 27  2  0
 27 28  1  0
 27 29  1  0
 29 30  2  0
 23  4  1  0
 30 24  1  0
 22  6  1  0
 20 13  1  0
  1 31  1  0
  1 32  1  0
  1 33  1  0
  2 34  1  0
  3 35  1  0
  3 36  1  0
  3 37  1  0
  5 38  1  0
  5 39  1  0
  7 40  1  0
  7 41  1  0
  8 42  1  0
  8 43  1  0
 12 44  1  0
 14 45  1  0
 15 46  1  0
 20 47  1  0
 21 48  1  0
 21 49  1  0
 22 50  1  0
 22 51  1  0
 23 52  1  6
 25 53  1  0
 26 54  1  0
 29 55  1  0
 30 56  1  0
M  END
>  <fragInfo>  (1) 
4 5 6 7 8 9 21 22 23 38 39 40 41 42 43 48 49 50 51 52
1 31 32 33
2 34
3 35 36 37
10 11 12 44
13 14 15 16 17 18 19 20 45 46 47
24 25 26 27 28 29 30 53 54 55 56


>  <torsionInfo>  (1) 
2 4 2 0
9 10 0 4
23 24 0 6
1 2 1 2
2 3 2 3
12 13 4 5


>  <atomInfo>  (1) 
1  -0.0497841C 
2  0.00451953C 
3  -0.0497841C 
4  -0.2927031NA
5  0.00667655C 
6  0.00616402C 
7  -0.0265485C 
8  0.02288250C 
9  -0.3244906N 
10 0.32134021C 
11 -0.2482699OA
12 -0.3077326N 
13 0.04549980A 
14 -0.0353498A 
15 -0.0211876A 
16 0.15848020A 
17 -0.2037663F 
18 0.16039323A 
19 -0.2036856F 
20 0.00048946A 
21 0.02288250C 
22 -0.0265485C 
23 0.04204053C 
24 -0.0300817A 
25 -0.0559520A 
26 -0.0431945A 
27 0.04057034A 
28 -0.0843441Cl
29 -0.0431945A 
30 -0.0559520A 
31 0.02462194H 
32 0.02462194H 
33 0.02462194H 
34 0.04616122H 
35 0.02462194H 
36 0.02462194H 
37 0.02462194H 
38 0.04374699H 
39 0.04374699H 
40 0.02915953H 
41 0.02915953H 
42 0.04946914H 
43 0.04946914H 
44 0.17137078HD
45 0.06457993H 
46 0.06554804H 
47 0.06769192H 
48 0.04946914H 
49 0.04946914H 
50 0.02915953H 
51 0.02915953H 
52 0.05248812H 
53 0.06267426H 
54 0.06385130H 
55 0.06385130H 
56 0.06267426H 


$$$$
