
     RDKit          3D

 70 72  0  0  0  0  0  0  0  0999 V2000
   -7.0613    0.0344    2.5071 C   0  0  0  0  0  0  0  0  0  0  0  0
   -5.6289    0.5641    2.4368 C   0  0  0  0  0  0  0  0  0  0  0  0
   -5.0083    0.3507    3.7810 C   0  0  0  0  0  0  0  0  0  0  0  0
   -4.9918   -0.1044    1.3807 O   0  0  0  0  0  0  0  0  0  0  0  0
   -4.5303    0.5355    0.2361 C   0  0  0  0  0  0  0  0  0  0  0  0
   -4.7133    1.7713    0.1871 O   0  0  0  0  0  0  0  0  0  0  0  0
   -3.8593   -0.1387   -0.8873 C   0  0  0  0  0  0  0  0  0  0  0  0
   -3.6112    0.7925   -1.9395 N   0  0  0  0  0  0  0  0  0  0  0  0
   -4.4817    0.9057   -3.0506 C   0  0  0  0  0  0  0  0  0  0  0  0
   -4.2575    0.0861   -4.1365 C   0  0  0  0  0  0  0  0  0  0  0  0
   -5.0728    0.1377   -5.2621 C   0  0  0  0  0  0  0  0  0  0  0  0
   -6.1264    1.0402   -5.2681 C   0  0  0  0  0  0  0  0  0  0  0  0
   -6.3199    1.8422   -4.1669 C   0  0  0  0  0  0  0  0  0  0  0  0
   -7.6574    3.0008   -4.1534 Cl  0  0  0  0  0  0  0  0  0  0  0  0
   -5.5132    1.8049   -3.0298 C   0  0  0  0  0  0  0  0  0  0  0  0
   -2.2100    1.8273   -1.9594 S   0  0  0  0  0  0  0  0  0  0  0  0
   -2.1867    2.7187   -3.1503 O   0  0  0  0  0  0  0  0  0  0  0  0
   -2.1421    2.6438   -0.7004 O   0  0  0  0  0  0  0  0  0  0  0  0
   -0.8163    0.7696   -2.0094 C   0  0  0  0  0  0  0  0  0  0  0  0
   -0.3289    0.3971   -3.2347 C   0  0  0  0  0  0  0  0  0  0  0  0
    0.7575   -0.4286   -3.3089 C   0  0  0  0  0  0  0  0  0  0  0  0
    1.3446   -0.8726   -2.1142 C   0  0  0  0  0  0  0  0  0  0  0  0
    0.8904   -0.5254   -0.8812 C   0  0  0  0  0  0  0  0  0  0  0  0
    1.4235   -0.9364    0.3554 N   0  0  0  0  0  0  0  0  0  0  0  0
    2.4759   -1.8609    0.5354 C   0  0  0  0  0  0  0  0  0  0  0  0
    3.0434   -2.4144   -0.4250 O   0  0  0  0  0  0  0  0  0  0  0  0
    2.9564   -2.2153    1.9111 C   0  0  0  0  0  0  0  0  0  0  0  0
    4.0247   -3.1664    1.8725 N   0  0  0  0  0  0  0  0  0  0  0  0
    3.7536   -4.5767    1.9047 C   0  0  0  0  0  0  0  0  0  0  0  0
    5.3888   -2.7204    1.8016 C   0  0  0  0  0  0  0  0  0  0  0  0
    6.3409   -3.5333    1.7638 O   0  0  0  0  0  0  0  0  0  0  0  0
    5.6967   -1.3678    1.7725 O   0  0  0  0  0  0  0  0  0  0  0  0
    7.0460   -0.9296    1.7011 C   0  0  0  0  0  0  0  0  0  0  0  0
    7.0424    0.5475    1.6857 C   0  0  0  0  0  0  0  0  0  0  0  0
    5.8994    1.3204    1.7861 C   0  0  0  0  0  0  0  0  0  0  0  0
    5.9504    2.6812    1.7665 C   0  0  0  0  0  0  0  0  0  0  0  0
    7.1665    3.3435    1.6434 C   0  0  0  0  0  0  0  0  0  0  0  0
    8.3102    2.5928    1.5425 C   0  0  0  0  0  0  0  0  0  0  0  0
    8.2402    1.2218    1.5641 C   0  0  0  0  0  0  0  0  0  0  0  0
   -0.2147    0.3144   -0.8567 C   0  0  0  0  0  0  0  0  0  0  0  0
   -7.1032   -0.9869    2.9181 H   0  0  0  0  0  0  0  0  0  0  0  0
   -7.5906    0.7087    3.2261 H   0  0  0  0  0  0  0  0  0  0  0  0
   -7.5482    0.1064    1.5152 H   0  0  0  0  0  0  0  0  0  0  0  0
   -5.7201    1.6594    2.2517 H   0  0  0  0  0  0  0  0  0  0  0  0
   -4.1445    1.0227    3.9851 H   0  0  0  0  0  0  0  0  0  0  0  0
   -4.7832   -0.7141    3.9751 H   0  0  0  0  0  0  0  0  0  0  0  0
   -5.7912    0.6265    4.5415 H   0  0  0  0  0  0  0  0  0  0  0  0
   -4.5545   -0.9259   -1.3032 H   0  0  0  0  0  0  0  0  0  0  0  0
   -2.9217   -0.6500   -0.5828 H   0  0  0  0  0  0  0  0  0  0  0  0
   -3.4344   -0.6117   -4.1195 H   0  0  0  0  0  0  0  0  0  0  0  0
   -4.9369   -0.4788   -6.1270 H   0  0  0  0  0  0  0  0  0  0  0  0
   -6.7879    1.1044   -6.1416 H   0  0  0  0  0  0  0  0  0  0  0  0
   -5.7365    2.4745   -2.2102 H   0  0  0  0  0  0  0  0  0  0  0  0
   -0.7906    0.7465   -4.1624 H   0  0  0  0  0  0  0  0  0  0  0  0
    1.1924   -0.7606   -4.2629 H   0  0  0  0  0  0  0  0  0  0  0  0
    2.1900   -1.5108   -2.2155 H   0  0  0  0  0  0  0  0  0  0  0  0
    1.0252   -0.5358    1.2712 H   0  0  0  0  0  0  0  0  0  0  0  0
    3.1859   -1.3312    2.5189 H   0  0  0  0  0  0  0  0  0  0  0  0
    2.0823   -2.7145    2.4098 H   0  0  0  0  0  0  0  0  0  0  0  0
    3.2641   -4.8588    2.8462 H   0  0  0  0  0  0  0  0  0  0  0  0
    4.6948   -5.1662    1.7944 H   0  0  0  0  0  0  0  0  0  0  0  0
    3.1090   -4.8821    1.0560 H   0  0  0  0  0  0  0  0  0  0  0  0
    7.5626   -1.2671    2.6296 H   0  0  0  0  0  0  0  0  0  0  0  0
    7.5296   -1.3643    0.8177 H   0  0  0  0  0  0  0  0  0  0  0  0
    4.9478    0.8084    1.8818 H   0  0  0  0  0  0  0  0  0  0  0  0
    5.0488    3.2813    1.8461 H   0  0  0  0  0  0  0  0  0  0  0  0
    7.1967    4.4096    1.6292 H   0  0  0  0  0  0  0  0  0  0  0  0
    9.2664    3.0866    1.4462 H   0  0  0  0  0  0  0  0  0  0  0  0
    9.1622    0.6356    1.4825 H   0  0  0  0  0  0  0  0  0  0  0  0
   -0.6336    0.6350    0.0833 H   0  0  0  0  0  0  0  0  0  0  0  0
  1  2  1  0
  2  3  1  0
  2  4  1  0
  4  5  1  0
  5  6  2  0
  5  7  1  0
  7  8  1  0
  8  9  1  0
  9 10  2  0
 10 11  1  0
 11 12  2  0
 12 13  1  0
 13 14  1  0
 13 15  2  0
  8 16  1  0
 16 17  2  0
 16 18  2  0
 16 19  1  0
 19 20  2  0
 20 21  1  0
 21 22  2  0
 22 23  1  0
 23 24  1  0
 24 25  1  0
 25 26  2  0
 25 27  1  0
 27 28  1  0
 28 29  1  0
 28 30  1  0
 30 31  2  0
 30 32  1  0
 32 33  1  0
 33 34  1  0
 34 35  2  0
 35 36  1  0
 36 37  2  0
 37 38  1  0
 38 39  2  0
 23 40  2  0
 15  9  1  0
 40 19  1  0
 39 34  1  0
  1 41  1  0
  1 42  1  0
  1 43  1  0
  2 44  1  0
  3 45  1  0
  3 46  1  0
  3 47  1  0
  7 48  1  0
  7 49  1  0
 10 50  1  0
 11 51  1  0
 12 52  1  0
 15 53  1  0
 20 54  1  0
 21 55  1  0
 22 56  1  0
 24 57  1  0
 27 58  1  0
 27 59  1  0
 29 60  1  0
 29 61  1  0
 29 62  1  0
 33 63  1  0
 33 64  1  0
 35 65  1  0
 36 66  1  0
 37 67  1  0
 38 68  1  0
 39 69  1  0
 40 70  1  0
M  END
>  <fragInfo>  (1) 
9 10 11 12 13 14 15 50 51 52 53
1 41 42 43
2 44
3 45 46 47
4
5 6
7 48 49
8
16 17 18
19 20 21 22 23 40 54 55 56 70
24 25 26 57
27 58 59
28
29 60 61 62
30 31
32
33 63 64
34 35 36 37 38 39 65 66 67 68 69


>  <torsionInfo>  (1) 
8 9 7 0
1 2 1 2
2 3 2 3
2 4 2 4
4 5 4 5
5 7 5 6
7 8 6 7
8 16 7 8
16 19 8 9
23 24 9 10
25 27 10 11
27 28 11 12
28 29 12 13
28 30 12 14
30 32 14 15
32 33 15 16
33 34 16 17


>  <atomInfo>  (1) 
1  -0.0279282C 
2  0.09625077C 
3  -0.0279282C 
4  -0.4616209OA
5  0.32656966C 
6  -0.2500885OA
7  0.13209972C 
8  -0.2550549N 
9  0.05398637A 
10 -0.0375871A 
11 -0.0586924A 
12 -0.0433738A 
13 0.04264419A 
14 -0.0842631Cl
15 -0.0189781A 
16 0.26443090S 
17 -0.2010187OA
18 -0.2010187OA
19 0.08960318A 
20 -0.0414675A 
21 -0.0588338A 
22 -0.0384462A 
23 0.04209899A 
24 -0.3245054N 
25 0.24361843C 
26 -0.2726672OA
27 0.10288676C 
28 -0.3019476N 
29 0.01312781C 
30 0.40980416C 
31 -0.2243438OA
32 -0.4445383OA
33 0.11831413C 
34 -0.0105792A 
35 -0.0556290A 
36 -0.0618669A 
37 -0.0622444A 
38 -0.0618669A 
39 -0.0556290A 
40 -0.0179113A 
41 0.02680078H 
42 0.02680078H 
43 0.02680078H 
44 0.07376985H 
45 0.02680078H 
46 0.02680078H 
47 0.02680078H 
48 0.06281620H 
49 0.06281620H 
50 0.06449977H 
51 0.06239886H 
52 0.06384271H 
53 0.06607933H 
54 0.06371230H 
55 0.06239001H 
56 0.06447117H 
57 0.16949897HD
58 0.05984450H 
59 0.05984450H 
60 0.04586105H 
61 0.04586105H 
62 0.04586105H 
63 0.07604639H 
64 0.07604639H 
65 0.06268997H 
66 0.06228078H 
67 0.06226892H 
68 0.06228078H 
69 0.06268997H 
70 0.06591995H 


$$$$
