
     RDKit          3D

 54 59  0  0  0  0  0  0  0  0999 V2000
   -1.3483   -0.9504    2.4227 O   0  0  0  0  0  0  0  0  0  0  0  0
   -1.5482   -0.7610    1.1981 C   0  0  0  0  0  0  0  0  0  0  0  0
   -2.6981   -0.7937    0.3856 N   0  0  0  0  0  0  0  0  0  0  0  0
   -4.0492   -1.2627    0.4716 C   0  0  0  0  0  0  0  0  0  0  0  0
   -4.9629   -1.0142   -0.5325 C   0  0  0  0  0  0  0  0  0  0  0  0
   -6.2704   -1.4391   -0.4591 C   0  0  0  0  0  0  0  0  0  0  0  0
   -6.6472   -2.1341    0.6713 C   0  0  0  0  0  0  0  0  0  0  0  0
   -7.9379   -2.5452    0.7615 F   0  0  0  0  0  0  0  0  0  0  0  0
   -5.7386   -2.3851    1.6761 C   0  0  0  0  0  0  0  0  0  0  0  0
   -6.2728   -3.2905    3.0912 Cl  0  0  0  0  0  0  0  0  0  0  0  0
   -4.4356   -1.9528    1.5844 C   0  0  0  0  0  0  0  0  0  0  0  0
   -1.9842   -0.1114   -0.6517 C   0  0  1  0  0  0  0  0  0  0  0  0
   -2.3894    1.3166   -0.6478 C   0  0  0  0  0  0  0  0  0  0  0  0
   -2.6337    1.9944    0.5365 C   0  0  0  0  0  0  0  0  0  0  0  0
   -2.9955    3.3313    0.5106 C   0  0  0  0  0  0  0  0  0  0  0  0
   -3.1201    4.0060   -0.6835 C   0  0  0  0  0  0  0  0  0  0  0  0
   -2.8687    3.2974   -1.8470 C   0  0  0  0  0  0  0  0  0  0  0  0
   -2.5141    1.9859   -1.7957 N   0  0  0  0  0  0  0  0  0  0  0  0
   -0.7202   -0.4277    0.0583 C   0  0  0  0  0  0  0  0  0  0  0  0
    0.0220   -1.6182   -0.4760 C   0  0  0  0  0  0  0  0  0  0  0  0
    1.4467   -1.6686    0.0395 C   0  0  0  0  0  0  0  0  0  0  0  0
    2.1350   -0.4773   -0.4010 N   0  0  0  0  0  0  0  0  0  0  0  0
    3.5515   -0.2982   -0.3305 C   0  0  0  0  0  0  0  0  0  0  0  0
    4.3859    0.2290   -1.2463 N   0  0  0  0  0  0  0  0  0  0  0  0
    5.6492    0.2532   -0.8018 C   0  0  0  0  0  0  0  0  0  0  0  0
    6.8629    0.6746   -1.3219 C   0  0  0  0  0  0  0  0  0  0  0  0
    8.0489    0.5769   -0.6212 C   0  0  0  0  0  0  0  0  0  0  0  0
    8.0048    0.0359    0.6462 C   0  0  0  0  0  0  0  0  0  0  0  0
    9.4792   -0.0973    1.5675 Cl  0  0  0  0  0  0  0  0  0  0  0  0
    6.8168   -0.3873    1.1771 C   0  0  0  0  0  0  0  0  0  0  0  0
    5.6243   -0.2886    0.4688 C   0  0  0  0  0  0  0  0  0  0  0  0
    4.3514   -0.6132    0.7313 N   0  0  0  0  0  0  0  0  0  0  0  0
    1.2615    0.5920   -0.9134 C   0  0  0  0  0  0  0  0  0  0  0  0
    0.2211    0.7597    0.2113 C   0  0  0  0  0  0  0  0  0  0  0  0
   -4.5972   -0.4578   -1.4028 H   0  0  0  0  0  0  0  0  0  0  0  0
   -6.9705   -1.2312   -1.2627 H   0  0  0  0  0  0  0  0  0  0  0  0
   -3.6981   -2.1422    2.3789 H   0  0  0  0  0  0  0  0  0  0  0  0
   -2.0184   -0.5923   -1.6454 H   0  0  0  0  0  0  0  0  0  0  0  0
   -2.5377    1.4716    1.4852 H   0  0  0  0  0  0  0  0  0  0  0  0
   -3.1811    3.8532    1.4410 H   0  0  0  0  0  0  0  0  0  0  0  0
   -3.3998    5.0514   -0.7378 H   0  0  0  0  0  0  0  0  0  0  0  0
   -2.9666    3.8405   -2.7807 H   0  0  0  0  0  0  0  0  0  0  0  0
    0.0513   -1.6543   -1.5898 H   0  0  0  0  0  0  0  0  0  0  0  0
   -0.5085   -2.5392   -0.1224 H   0  0  0  0  0  0  0  0  0  0  0  0
    1.4194   -1.7596    1.1261 H   0  0  0  0  0  0  0  0  0  0  0  0
    1.9428   -2.5797   -0.3690 H   0  0  0  0  0  0  0  0  0  0  0  0
    6.8496    1.0920   -2.3130 H   0  0  0  0  0  0  0  0  0  0  0  0
    9.0049    0.8956   -0.9944 H   0  0  0  0  0  0  0  0  0  0  0  0
    6.7777   -0.8134    2.1716 H   0  0  0  0  0  0  0  0  0  0  0  0
    4.0114   -1.0381    1.6060 H   0  0  0  0  0  0  0  0  0  0  0  0
    0.8059    0.1973   -1.8399 H   0  0  0  0  0  0  0  0  0  0  0  0
    1.8100    1.5169   -1.1015 H   0  0  0  0  0  0  0  0  0  0  0  0
    0.7433    0.6271    1.1755 H   0  0  0  0  0  0  0  0  0  0  0  0
   -0.2648    1.7261    0.1245 H   0  0  0  0  0  0  0  0  0  0  0  0
  1  2  2  0
  2  3  1  0
  3  4  1  0
  4  5  2  0
  5  6  1  0
  6  7  2  0
  7  8  1  0
  7  9  1  0
  9 10  1  0
  9 11  2  0
  3 12  1  0
 12 13  1  0
 13 14  2  0
 14 15  1  0
 15 16  2  0
 16 17  1  0
 17 18  2  0
 12 19  1  0
 19 20  1  0
 20 21  1  0
 21 22  1  0
 22 23  1  0
 23 24  2  0
 24 25  1  0
 25 26  2  0
 26 27  1  0
 27 28  2  0
 28 29  1  0
 28 30  1  0
 30 31  2  0
 31 32  1  0
 22 33  1  0
 33 34  1  0
 19  2  1  0
 32 23  1  0
 11  4  1  0
 18 13  1  0
 34 19  1  0
 31 25  1  0
  5 35  1  0
  6 36  1  0
 11 37  1  0
 12 38  1  6
 14 39  1  0
 15 40  1  0
 16 41  1  0
 17 42  1  0
 20 43  1  0
 20 44  1  0
 21 45  1  0
 21 46  1  0
 26 47  1  0
 27 48  1  0
 30 49  1  0
 32 50  1  0
 33 51  1  0
 33 52  1  0
 34 53  1  0
 34 54  1  0
M  END
>  <fragInfo>  (1) 
1 2 3 12 19 20 21 22 33 34 38 43 44 45 46 51 52 53 54
4 5 6 7 8 9 10 11 35 36 37
13 14 15 16 17 18 39 40 41 42
23 24 25 26 27 28 29 30 31 32 47 48 49 50


>  <torsionInfo>  (1) 
3 4 0 1
12 13 0 2
22 23 0 3


>  <atomInfo>  (1) 
1  -0.2737375OA
2  0.23602004C 
3  -0.3016361N 
4  0.04613962A 
5  -0.0352698A 
6  -0.0226871A 
7  0.14143861A 
8  -0.2053590F 
9  0.07835148A 
10 -0.0810568Cl
11 -0.0165777A 
12 0.09349707C 
13 0.06440208A 
14 -0.0383694A 
15 -0.0588457A 
16 -0.0437944A 
17 0.02716027A 
18 -0.2590516NA
19 0.07954944C 
20 -0.0183748C 
21 0.02172620C 
22 -0.3423275N 
23 0.20333343A 
24 -0.2130113NA
25 0.09061717A 
26 -0.0326571A 
27 -0.0412231A 
28 0.04277438A 
29 -0.0842609Cl
30 -0.0175823A 
31 0.06844104A 
32 -0.3239545N 
33 0.02172620C 
34 -0.0183748C 
35 0.06458513H 
36 0.06549254H 
37 0.06616846H 
38 0.06142115H 
39 0.06427972H 
40 0.06239211H 
41 0.06389695H 
42 0.08399205H 
43 0.02965751H 
44 0.02965751H 
45 0.04942299H 
46 0.04942299H 
47 0.06468648H 
48 0.06392148H 
49 0.06613338H 
50 0.16968353HD
51 0.04942299H 
52 0.04942299H 
53 0.02965751H 
54 0.02965751H 


$$$$
