
     RDKit          3D

 56 60  0  0  0  0  0  0  0  0999 V2000
    3.8487   -0.0860    1.4261 O   0  0  0  0  0  0  0  0  0  0  0  0
    3.3918   -0.0680    0.2684 C   0  0  0  0  0  0  0  0  0  0  0  0
    4.2669    0.1263   -0.8191 N   0  0  0  0  0  0  0  0  0  0  0  0
    5.6759    0.3027   -0.7469 C   0  0  0  0  0  0  0  0  0  0  0  0
    6.4253    0.0819    0.3805 C   0  0  0  0  0  0  0  0  0  0  0  0
    7.7907    0.2959    0.3385 C   0  0  0  0  0  0  0  0  0  0  0  0
    8.4286    0.7237   -0.7982 C   0  0  0  0  0  0  0  0  0  0  0  0
    9.7614    0.9252   -0.8134 F   0  0  0  0  0  0  0  0  0  0  0  0
    7.6705    0.9448   -1.9323 C   0  0  0  0  0  0  0  0  0  0  0  0
    8.3359    1.3697   -3.0475 F   0  0  0  0  0  0  0  0  0  0  0  0
    6.3289    0.7358   -1.8938 C   0  0  0  0  0  0  0  0  0  0  0  0
    1.9711   -0.2454    0.0326 N   0  0  0  0  0  0  0  0  0  0  0  0
    1.1587   -0.4228    1.1658 C   0  0  0  0  0  0  0  0  0  0  0  0
   -0.3141   -0.4192    1.0575 C   0  0  0  0  0  0  0  0  0  0  0  0
   -0.8138   -0.2151   -0.3167 C   0  0  0  0  0  0  0  0  0  0  0  0
    0.0980   -0.8314   -1.3673 C   0  0  0  0  0  0  0  0  0  0  0  0
    1.4744   -0.2448   -1.3052 C   0  0  0  0  0  0  0  0  0  0  0  0
   -1.1631    1.2013   -0.5788 C   0  0  0  0  0  0  0  0  0  0  0  0
   -0.5419    2.2330   -0.9190 O   0  0  0  0  0  0  0  0  0  0  0  0
   -2.5064    0.8823   -0.2776 N   0  0  0  0  0  0  0  0  0  0  0  0
   -3.5881    1.6856    0.1960 C   0  0  0  0  0  0  0  0  0  0  0  0
   -3.3642    2.7050    1.0888 C   0  0  0  0  0  0  0  0  0  0  0  0
   -4.4352    3.4639    1.5298 C   0  0  0  0  0  0  0  0  0  0  0  0
   -5.6825    3.1708    1.0593 C   0  0  0  0  0  0  0  0  0  0  0  0
   -5.9082    2.1402    0.1566 C   0  0  0  0  0  0  0  0  0  0  0  0
   -7.4973    1.7659   -0.4434 Cl  0  0  0  0  0  0  0  0  0  0  0  0
   -4.8448    1.3928   -0.2761 C   0  0  0  0  0  0  0  0  0  0  0  0
   -2.2298   -0.4607   -0.6524 C   0  0  2  0  0  0  0  0  0  0  0  0
   -2.9861   -1.5421   -0.0592 C   0  0  0  0  0  0  0  0  0  0  0  0
   -3.2359   -2.6817   -0.8374 C   0  0  0  0  0  0  0  0  0  0  0  0
   -3.9513   -3.7642   -0.3894 C   0  0  0  0  0  0  0  0  0  0  0  0
   -4.4416   -3.7040    0.9015 C   0  0  0  0  0  0  0  0  0  0  0  0
   -4.1777   -2.5743    1.6316 C   0  0  0  0  0  0  0  0  0  0  0  0
   -3.4773   -1.5175    1.1882 N   0  0  0  0  0  4  0  0  0  0  0  0
   -3.2766   -0.4023    2.0001 O   0  0  0  0  0  1  0  0  0  0  0  0
    3.8313    0.1408   -1.7783 H   0  0  0  0  0  0  0  0  0  0  0  0
    6.0125   -0.2558    1.2961 H   0  0  0  0  0  0  0  0  0  0  0  0
    8.4048    0.1276    1.2250 H   0  0  0  0  0  0  0  0  0  0  0  0
    5.7544    0.9205   -2.8064 H   0  0  0  0  0  0  0  0  0  0  0  0
    1.4605   -1.3890    1.6860 H   0  0  0  0  0  0  0  0  0  0  0  0
    1.4643    0.3869    1.9180 H   0  0  0  0  0  0  0  0  0  0  0  0
   -0.6979    0.4334    1.6977 H   0  0  0  0  0  0  0  0  0  0  0  0
   -0.7819   -1.3152    1.5621 H   0  0  0  0  0  0  0  0  0  0  0  0
   -0.3705   -0.6285   -2.3477 H   0  0  0  0  0  0  0  0  0  0  0  0
    0.1318   -1.9177   -1.2200 H   0  0  0  0  0  0  0  0  0  0  0  0
    2.1124   -0.8577   -2.0006 H   0  0  0  0  0  0  0  0  0  0  0  0
    1.4569    0.8123   -1.6504 H   0  0  0  0  0  0  0  0  0  0  0  0
   -2.3511    2.8795    1.4180 H   0  0  0  0  0  0  0  0  0  0  0  0
   -4.2150    4.2491    2.2260 H   0  0  0  0  0  0  0  0  0  0  0  0
   -6.5181    3.7577    1.3973 H   0  0  0  0  0  0  0  0  0  0  0  0
   -5.0051    0.5843   -0.9821 H   0  0  0  0  0  0  0  0  0  0  0  0
   -2.3185   -0.5033   -1.7960 H   0  0  0  0  0  0  0  0  0  0  0  0
   -2.8527   -2.7429   -1.8651 H   0  0  0  0  0  0  0  0  0  0  0  0
   -4.1478   -4.6391   -0.9715 H   0  0  0  0  0  0  0  0  0  0  0  0
   -5.0111   -4.5058    1.3302 H   0  0  0  0  0  0  0  0  0  0  0  0
   -4.5503   -2.5045    2.6500 H   0  0  0  0  0  0  0  0  0  0  0  0
  1  2  2  0
  2  3  1  0
  3  4  1  0
  4  5  2  0
  5  6  1  0
  6  7  2  0
  7  8  1  0
  7  9  1  0
  9 10  1  0
  9 11  2  0
  2 12  1  0
 12 13  1  0
 13 14  1  0
 14 15  1  0
 15 16  1  0
 16 17  1  0
 15 18  1  0
 18 19  2  0
 18 20  1  0
 20 21  1  0
 21 22  2  0
 22 23  1  0
 23 24  2  0
 24 25  1  0
 25 26  1  0
 25 27  2  0
 20 28  1  0
 28 29  1  0
 29 30  2  0
 30 31  1  0
 31 32  2  0
 32 33  1  0
 33 34  2  0
 34 35  1  0
 11  4  1  0
 17 12  1  0
 27 21  1  0
 34 29  1  0
 28 15  1  0
  3 36  1  0
  5 37  1  0
  6 38  1  0
 11 39  1  0
 13 40  1  0
 13 41  1  0
 14 42  1  0
 14 43  1  0
 16 44  1  0
 16 45  1  0
 17 46  1  0
 17 47  1  0
 22 48  1  0
 23 49  1  0
 24 50  1  0
 27 51  1  0
 28 52  1  6
 30 53  1  0
 31 54  1  0
 32 55  1  0
 33 56  1  0
M  CHG  2  34   1  35  -1
M  END
>  <fragInfo>  (1) 
12 13 14 15 16 17 18 19 20 28 40 41 42 43 44 45 46 47 52
1 2 3 36
4 5 6 7 8 9 10 11 37 38 39
21 22 23 24 25 26 27 48 49 50 51
29 30 31 32 33 34 35 53 54 55 56


>  <torsionInfo>  (1) 
2 12 1 0
20 21 0 3
28 29 0 4
3 4 1 2


>  <atomInfo>  (1) 
1  -0.2482699OA
2  0.32134061C 
3  -0.3077325N 
4  0.04549980A 
5  -0.0353498A 
6  -0.0211876A 
7  0.15848020A 
8  -0.2037663F 
9  0.16039323A 
10 -0.2036856F 
11 0.00048946A 
12 -0.3244611N 
13 0.02336123C 
14 -0.0181278C 
15 0.08403556C 
16 -0.0181278C 
17 0.02336123C 
18 0.23637505C 
19 -0.2737308OA
20 -0.2969850N 
21 0.04613844A 
22 -0.0381774A 
23 -0.0587124A 
24 -0.0433745A 
25 0.04262417A 
26 -0.0842634Cl
27 -0.0195681A 
28 0.13690566C 
29 0.21636336A 
30 0.00899590A 
31 -0.0499244A 
32 0.00339520A 
33 0.18021117A 
34 -0.1742434N 
35 -0.6184457OA
36 0.17137078HD
37 0.06457993H 
38 0.06554804H 
39 0.06769192H 
40 0.04948374H 
41 0.04948374H 
42 0.02966171H 
43 0.02966171H 
44 0.02966171H 
45 0.02966171H 
46 0.04948374H 
47 0.04948374H 
48 0.06447949H 
49 0.06239855H 
50 0.06384271H 
51 0.06605895H 
52 0.06630739H 
53 0.06906035H 
54 0.06273424H 
55 0.06864934H 
56 0.14086078H 


$$$$
