
     RDKit          3D

 65 68  0  0  0  0  0  0  0  0999 V2000
    7.3942   -2.5442    0.5115 C   0  0  0  0  0  0  0  0  0  0  0  0
    6.8633   -1.1094    0.3951 C   0  0  0  0  0  0  0  0  0  0  0  0
    5.3733   -1.1305    0.5050 C   0  0  2  0  0  0  0  0  0  0  0  0
    4.8704   -2.0132   -0.6584 C   0  0  0  0  0  0  0  0  0  0  0  0
    4.6914    0.1806    0.3958 C   0  0  2  0  0  0  0  0  0  0  0  0
    3.2391    0.0015    0.5395 N   0  0  0  0  0  0  0  0  0  0  0  0
    2.3972    0.9855    1.0816 C   0  0  0  0  0  0  0  0  0  0  0  0
    2.8918    2.0641    1.4545 O   0  0  0  0  0  0  0  0  0  0  0  0
    1.0170    0.7526    1.1936 N   0  0  0  0  0  0  0  0  0  0  0  0
    0.0873    1.7360    1.7237 C   0  0  0  0  0  0  0  0  0  0  0  0
   -1.0290    1.8620    0.7123 C   0  0  0  0  0  0  0  0  0  0  0  0
   -1.6997    0.5265    0.5495 C   0  0  0  0  0  0  0  0  0  0  0  0
   -0.9594   -0.5802    1.2636 C   0  0  0  0  0  0  0  0  0  0  0  0
    0.4648   -0.5312    0.7675 C   0  0  0  0  0  0  0  0  0  0  0  0
   -1.9972    0.0866   -0.8267 C   0  0  0  0  0  0  0  0  0  0  0  0
   -1.4638    0.1219   -1.9757 O   0  0  0  0  0  0  0  0  0  0  0  0
   -3.2187   -0.4456   -0.3561 N   0  0  0  0  0  0  0  0  0  0  0  0
   -4.1613   -1.4663   -0.7369 C   0  0  0  0  0  0  0  0  0  0  0  0
   -4.2436   -2.6503   -0.0137 C   0  0  0  0  0  0  0  0  0  0  0  0
   -5.1761   -3.6191   -0.3944 C   0  0  0  0  0  0  0  0  0  0  0  0
   -6.0183   -3.4507   -1.4572 C   0  0  0  0  0  0  0  0  0  0  0  0
   -5.9340   -2.2706   -2.1756 C   0  0  0  0  0  0  0  0  0  0  0  0
   -6.7393   -2.0614   -3.2338 F   0  0  0  0  0  0  0  0  0  0  0  0
   -5.0025   -1.2986   -1.7986 C   0  0  0  0  0  0  0  0  0  0  0  0
   -3.1701    0.4952    0.7444 C   0  0  2  0  0  0  0  0  0  0  0  0
   -3.9222    1.7157    0.4401 C   0  0  0  0  0  0  0  0  0  0  0  0
   -3.7950    2.4912   -0.6817 C   0  0  0  0  0  0  0  0  0  0  0  0
   -4.5653    3.6349   -0.8987 C   0  0  0  0  0  0  0  0  0  0  0  0
   -5.4897    4.0291    0.0152 C   0  0  0  0  0  0  0  0  0  0  0  0
   -6.4623    5.4722   -0.2596 Cl  0  0  0  0  0  0  0  0  0  0  0  0
   -5.6496    3.2707    1.1654 C   0  0  0  0  0  0  0  0  0  0  0  0
   -4.8783    2.1459    1.3591 C   0  0  0  0  0  0  0  0  0  0  0  0
    4.9266    0.8543   -0.9327 C   0  0  0  0  0  0  0  0  0  0  0  0
    3.9434    1.1128   -1.6569 O   0  0  0  0  0  0  0  0  0  0  0  0
    6.1940    1.1879   -1.3571 O   0  0  0  0  0  0  0  0  0  0  0  0
    6.3783    1.8104   -2.5908 C   0  0  0  0  0  0  0  0  0  0  0  0
    6.5319    2.3082   -3.6207 N   0  0  0  0  0  0  0  0  0  0  0  0
    8.1598   -2.6089    1.2765 H   0  0  0  0  0  0  0  0  0  0  0  0
    6.5620   -3.2383    0.7796 H   0  0  0  0  0  0  0  0  0  0  0  0
    7.7299   -2.8929   -0.4932 H   0  0  0  0  0  0  0  0  0  0  0  0
    7.3316   -0.5374    1.2310 H   0  0  0  0  0  0  0  0  0  0  0  0
    7.2203   -0.7200   -0.5758 H   0  0  0  0  0  0  0  0  0  0  0  0
    5.0961   -1.6898    1.4231 H   0  0  0  0  0  0  0  0  0  0  0  0
    4.6740   -1.3017   -1.4970 H   0  0  0  0  0  0  0  0  0  0  0  0
    3.9564   -2.5319   -0.3283 H   0  0  0  0  0  0  0  0  0  0  0  0
    5.6767   -2.6743   -1.0057 H   0  0  0  0  0  0  0  0  0  0  0  0
    5.0482    0.8924    1.1456 H   0  0  0  0  0  0  0  0  0  0  0  0
    2.8447   -0.8966    0.2215 H   0  0  0  0  0  0  0  0  0  0  0  0
   -0.3500    1.3321    2.6552 H   0  0  0  0  0  0  0  0  0  0  0  0
    0.5875    2.7074    1.9181 H   0  0  0  0  0  0  0  0  0  0  0  0
   -1.8171    2.5543    1.1036 H   0  0  0  0  0  0  0  0  0  0  0  0
   -0.6505    2.2552   -0.2559 H   0  0  0  0  0  0  0  0  0  0  0  0
   -1.0033   -0.5456    2.3472 H   0  0  0  0  0  0  0  0  0  0  0  0
   -1.3559   -1.5848    0.9311 H   0  0  0  0  0  0  0  0  0  0  0  0
    1.0763   -1.3891    1.1129 H   0  0  0  0  0  0  0  0  0  0  0  0
    0.4340   -0.4565   -0.3546 H   0  0  0  0  0  0  0  0  0  0  0  0
   -3.5747   -2.7804    0.8285 H   0  0  0  0  0  0  0  0  0  0  0  0
   -5.2465   -4.5444    0.1645 H   0  0  0  0  0  0  0  0  0  0  0  0
   -6.7524   -4.2069   -1.7602 H   0  0  0  0  0  0  0  0  0  0  0  0
   -4.9322   -0.3589   -2.3619 H   0  0  0  0  0  0  0  0  0  0  0  0
   -3.5205   -0.0438    1.6611 H   0  0  0  0  0  0  0  0  0  0  0  0
   -3.0764    2.2155   -1.4259 H   0  0  0  0  0  0  0  0  0  0  0  0
   -4.3963    4.1819   -1.8090 H   0  0  0  0  0  0  0  0  0  0  0  0
   -6.3941    3.6200    1.8619 H   0  0  0  0  0  0  0  0  0  0  0  0
   -5.0163    1.5686    2.2618 H   0  0  0  0  0  0  0  0  0  0  0  0
  1  2  1  0
  2  3  1  0
  3  4  1  0
  3  5  1  0
  5  6  1  0
  6  7  1  0
  7  8  2  0
  7  9  1  0
  9 10  1  0
 10 11  1  0
 11 12  1  0
 12 13  1  0
 13 14  1  0
 12 15  1  0
 15 16  2  0
 15 17  1  0
 17 18  1  0
 18 19  2  0
 19 20  1  0
 20 21  2  0
 21 22  1  0
 22 23  1  0
 22 24  2  0
 17 25  1  0
 25 26  1  0
 26 27  2  0
 27 28  1  0
 28 29  2  0
 29 30  1  0
 29 31  1  0
 31 32  2  0
  5 33  1  0
 33 34  2  0
 33 35  1  0
 35 36  1  0
 36 37  3  0
 14  9  1  0
 24 18  1  0
 32 26  1  0
 25 12  1  0
  1 38  1  0
  1 39  1  0
  1 40  1  0
  2 41  1  0
  2 42  1  0
  3 43  1  1
  4 44  1  0
  4 45  1  0
  4 46  1  0
  5 47  1  1
  6 48  1  0
 10 49  1  0
 10 50  1  0
 11 51  1  0
 11 52  1  0
 13 53  1  0
 13 54  1  0
 14 55  1  0
 14 56  1  0
 19 57  1  0
 20 58  1  0
 21 59  1  0
 24 60  1  0
 25 61  1  1
 27 62  1  0
 28 63  1  0
 31 64  1  0
 32 65  1  0
M  END
>  <fragInfo>  (1) 
9 10 11 12 13 14 15 16 17 25 49 50 51 52 53 54 55 56 61
1 38 39 40
2 41 42
3 43
4 44 45 46
5 47
6 7 8 48
18 19 20 21 22 23 24 57 58 59 60
26 27 28 29 30 31 32 62 63 64 65
33 34
35 36 37


>  <torsionInfo>  (1) 
7 9 6 0
17 18 0 7
25 26 0 8
1 2 1 2
2 3 2 3
3 4 3 4
3 5 3 5
5 6 5 6
5 33 5 9
33 35 9 10


>  <atomInfo>  (1) 
1  -0.0650356C 
2  -0.0510295C 
3  -0.0131502C 
4  -0.0599679C 
5  0.13200257C 
6  -0.3240775N 
7  0.31761888C 
8  -0.2486474OA
9  -0.3247404N 
10 0.02334501C 
11 -0.0183748C 
12 0.07802534C 
13 -0.0183748C 
14 0.02334501C 
15 0.23590627C 
16 -0.2737396OA
17 -0.3031680N 
18 0.04729159A 
19 -0.0380781A 
20 -0.0572842A 
21 -0.0261675A 
22 0.12478585A 
23 -0.2069296F 
24 -0.0023919A 
25 0.07643041C 
26 -0.0238947A 
27 -0.0554342A 
28 -0.0431757A 
29 0.04057096A 
30 -0.0843441Cl
31 -0.0431757A 
32 -0.0554342A 
33 0.34385498C 
34 -0.2484710OA
35 -0.3490860OA
36 0.29451124C 
37 -0.1496883NA
38 0.02304679H 
39 0.02304679H 
40 0.02304679H 
41 0.02673679H 
42 0.02673679H 
43 0.03269447H 
44 0.02341031H 
45 0.02341031H 
46 0.02341031H 
47 0.06551616H 
48 0.16581666HD
49 0.04948350H 
50 0.04948350H 
51 0.02965750H 
52 0.02965750H 
53 0.02965750H 
54 0.02965750H 
55 0.04948350H 
56 0.04948350H 
57 0.06448117H 
58 0.06245054H 
59 0.06536064H 
60 0.06758596H 
61 0.05976927H 
62 0.06269343H 
63 0.06385161H 
64 0.06385161H 
65 0.06269343H 


$$$$
