
     RDKit          3D

 56 60  0  0  0  0  0  0  0  0999 V2000
   -5.8233    2.8723   -3.4137 N   0  0  0  0  0  0  0  0  0  0  0  0
   -5.5798    1.7936   -3.0175 C   0  0  0  0  0  0  0  0  0  0  0  0
   -5.2822    0.4572   -2.5406 C   0  0  0  0  0  0  0  0  0  0  0  0
   -6.2305   -0.5429   -2.5775 C   0  0  0  0  0  0  0  0  0  0  0  0
   -5.9024   -1.7991   -2.1152 C   0  0  0  0  0  0  0  0  0  0  0  0
   -4.6201   -2.0414   -1.6177 C   0  0  0  0  0  0  0  0  0  0  0  0
   -3.6863   -1.0249   -1.5905 C   0  0  0  0  0  0  0  0  0  0  0  0
   -2.3806   -1.2440   -1.0965 N   0  0  0  0  0  0  0  0  0  0  0  0
   -1.0895   -1.0532   -1.6426 C   0  0  0  0  0  0  0  0  0  0  0  0
   -0.6202   -1.0407   -2.7948 O   0  0  0  0  0  0  0  0  0  0  0  0
   -0.5608   -0.8812   -0.2888 C   0  0  0  0  0  0  0  0  0  0  0  0
   -0.5903    0.5320    0.1636 C   0  0  0  0  0  0  0  0  0  0  0  0
    0.5800    1.2710   -0.4360 C   0  0  0  0  0  0  0  0  0  0  0  0
    1.8430    0.5811   -0.2888 N   0  0  0  0  0  0  0  0  0  0  0  0
    3.0261    1.3684   -0.1538 C   0  0  0  0  0  0  0  0  0  0  0  0
    2.8974    2.6131   -0.1525 O   0  0  0  0  0  0  0  0  0  0  0  0
    4.3259    0.8357   -0.0223 N   0  0  0  0  0  0  0  0  0  0  0  0
    5.5340    1.5291    0.1216 C   0  0  0  0  0  0  0  0  0  0  0  0
    5.7081    2.8633    0.3089 C   0  0  0  0  0  0  0  0  0  0  0  0
    6.9728    3.4065    0.4249 C   0  0  0  0  0  0  0  0  0  0  0  0
    7.1105    4.7543    0.6136 F   0  0  0  0  0  0  0  0  0  0  0  0
    8.1077    2.6485    0.3595 C   0  0  0  0  0  0  0  0  0  0  0  0
    7.9608    1.3062    0.1721 C   0  0  0  0  0  0  0  0  0  0  0  0
    9.0685    0.5261    0.1024 F   0  0  0  0  0  0  0  0  0  0  0  0
    6.7065    0.7623    0.0563 C   0  0  0  0  0  0  0  0  0  0  0  0
    1.9670   -0.8394   -0.2657 C   0  0  0  0  0  0  0  0  0  0  0  0
    0.7151   -1.6003    0.0248 C   0  0  0  0  0  0  0  0  0  0  0  0
   -1.7397   -1.7357    0.1079 C   0  0  1  0  0  0  0  0  0  0  0  0
   -2.4106   -1.4167    1.3645 C   0  0  0  0  0  0  0  0  0  0  0  0
   -2.5644   -2.4379    2.3049 C   0  0  0  0  0  0  0  0  0  0  0  0
   -3.1738   -2.2489    3.5059 C   0  0  0  0  0  0  0  0  0  0  0  0
   -3.6659   -1.0023    3.8236 C   0  0  0  0  0  0  0  0  0  0  0  0
   -3.5100    0.0095    2.8843 C   0  0  0  0  0  0  0  0  0  0  0  0
   -2.8961   -0.2169    1.6959 N   0  0  0  0  0  0  0  0  0  0  0  0
   -4.0146    0.2291   -2.0522 C   0  0  0  0  0  0  0  0  0  0  0  0
   -7.2109   -0.3058   -2.9716 H   0  0  0  0  0  0  0  0  0  0  0  0
   -6.6467   -2.6076   -2.1380 H   0  0  0  0  0  0  0  0  0  0  0  0
   -4.3578   -3.0097   -1.2581 H   0  0  0  0  0  0  0  0  0  0  0  0
   -0.6328    0.6772    1.2560 H   0  0  0  0  0  0  0  0  0  0  0  0
   -1.5052    1.0061   -0.2548 H   0  0  0  0  0  0  0  0  0  0  0  0
    0.3967    1.4629   -1.5273 H   0  0  0  0  0  0  0  0  0  0  0  0
    0.6237    2.2532    0.1156 H   0  0  0  0  0  0  0  0  0  0  0  0
    4.3609   -0.2285   -0.0394 H   0  0  0  0  0  0  0  0  0  0  0  0
    4.8404    3.5048    0.3716 H   0  0  0  0  0  0  0  0  0  0  0  0
    9.1001    3.0907    0.4529 H   0  0  0  0  0  0  0  0  0  0  0  0
    6.6793   -0.3213   -0.0930 H   0  0  0  0  0  0  0  0  0  0  0  0
    2.4275   -1.1606   -1.2317 H   0  0  0  0  0  0  0  0  0  0  0  0
    2.6760   -1.0964    0.5802 H   0  0  0  0  0  0  0  0  0  0  0  0
    0.6580   -1.9384    1.0853 H   0  0  0  0  0  0  0  0  0  0  0  0
    0.7313   -2.5315   -0.5891 H   0  0  0  0  0  0  0  0  0  0  0  0
   -1.4992   -2.8053   -0.0304 H   0  0  0  0  0  0  0  0  0  0  0  0
   -2.1854   -3.4361    2.0827 H   0  0  0  0  0  0  0  0  0  0  0  0
   -3.2993   -3.0343    4.2435 H   0  0  0  0  0  0  0  0  0  0  0  0
   -4.1553   -0.7982    4.7559 H   0  0  0  0  0  0  0  0  0  0  0  0
   -3.8954    0.9879    3.1327 H   0  0  0  0  0  0  0  0  0  0  0  0
   -3.2883    1.0567   -2.0410 H   0  0  0  0  0  0  0  0  0  0  0  0
  1  2  3  0
  2  3  1  0
  3  4  2  0
  4  5  1  0
  5  6  2  0
  6  7  1  0
  7  8  1  0
  8  9  1  0
  9 10  2  0
  9 11  1  0
 11 12  1  0
 12 13  1  0
 13 14  1  0
 14 15  1  0
 15 16  2  0
 15 17  1  0
 17 18  1  0
 18 19  2  0
 19 20  1  0
 20 21  1  0
 20 22  2  0
 22 23  1  0
 23 24  1  0
 23 25  2  0
 14 26  1  0
 26 27  1  0
 11 28  1  0
 28 29  1  0
 29 30  2  0
 30 31  1  0
 31 32  2  0
 32 33  1  0
 33 34  2  0
  7 35  2  0
 35  3  1  0
 28  8  1  0
 34 29  1  0
 27 11  1  0
 25 18  1  0
  4 36  1  0
  5 37  1  0
  6 38  1  0
 12 39  1  0
 12 40  1  0
 13 41  1  0
 13 42  1  0
 17 43  1  0
 19 44  1  0
 22 45  1  0
 25 46  1  0
 26 47  1  0
 26 48  1  0
 27 49  1  0
 27 50  1  0
 28 51  1  6
 30 52  1  0
 31 53  1  0
 32 54  1  0
 33 55  1  0
 35 56  1  0
M  END
>  <fragInfo>  (1) 
8 9 10 11 12 13 14 26 27 28 39 40 41 42 47 48 49 50 51
1 2 3 4 5 6 7 35 36 37 38 56
15 16 17 43
18 19 20 21 22 23 24 25 44 45 46
29 30 31 32 33 34 52 53 54 55


>  <torsionInfo>  (1) 
7 8 1 0
14 15 0 2
28 29 0 4
17 18 2 3


>  <atomInfo>  (1) 
1  -0.1924357NA
2  0.09918864C 
3  0.05405408A 
4  -0.0442386A 
5  -0.0588781A 
6  -0.0381959A 
7  0.04576285A 
8  -0.3016472N 
9  0.23601991C 
10 -0.2737375OA
11 0.07955148C 
12 -0.0183143C 
13 0.02335795C 
14 -0.3244611N 
15 0.32134219C 
16 -0.2482699OA
17 -0.3076294N 
18 0.04820000A 
19 -0.0023614A 
20 0.12769352A 
21 -0.2068170F 
22 0.00971451A 
23 0.12769352A 
24 -0.2068170F 
25 -0.0023614A 
26 0.02335795C 
27 -0.0183143C 
28 0.09349690C 
29 0.06440208A 
30 -0.0383694A 
31 -0.0588457A 
32 -0.0437944A 
33 0.02716027A 
34 -0.2590516NA
35 -0.0204330A 
36 0.06366353H 
37 0.06239114H 
38 0.06447920H 
39 0.02965851H 
40 0.02965851H 
41 0.04948371H 
42 0.04948371H 
43 0.17137277HD
44 0.06758253H 
45 0.06847673H 
46 0.06758253H 
47 0.04948371H 
48 0.04948371H 
49 0.02965851H 
50 0.02965851H 
51 0.06142115H 
52 0.06427972H 
53 0.06239211H 
54 0.06389695H 
55 0.08399205H 
56 0.06587874H 


$$$$
