
     RDKit          3D

 67 70  0  0  0  0  0  0  0  0999 V2000
   -7.1840   -0.7892   -0.0341 C   0  0  0  0  0  0  0  0  0  0  0  0
   -6.5034    0.2752    0.7656 C   0  0  0  0  0  0  0  0  0  0  0  0
   -5.0873    0.5423    0.4588 C   0  0  2  0  0  0  0  0  0  0  0  0
   -4.8102    0.9220   -0.9701 C   0  0  0  0  0  0  0  0  0  0  0  0
   -4.0866   -0.4369    0.9589 C   0  0  2  0  0  0  0  0  0  0  0  0
   -2.7744    0.1087    0.4827 N   0  0  0  0  0  0  0  0  0  0  0  0
   -1.8507    0.6528    1.4096 C   0  0  0  0  0  0  0  0  0  0  0  0
   -2.1416    0.6747    2.6454 O   0  0  0  0  0  0  0  0  0  0  0  0
   -0.6166    1.1621    0.9196 N   0  0  0  0  0  0  0  0  0  0  0  0
   -0.3758    1.0838   -0.4979 C   0  0  0  0  0  0  0  0  0  0  0  0
    0.9927    1.5383   -0.9283 C   0  0  0  0  0  0  0  0  0  0  0  0
    1.9570    1.2338    0.1470 C   0  0  0  0  0  0  0  0  0  0  0  0
    1.6342    2.0644    1.3626 C   0  0  0  0  0  0  0  0  0  0  0  0
    0.2820    1.7174    1.9033 C   0  0  0  0  0  0  0  0  0  0  0  0
    2.0374   -0.2339    0.4278 C   0  0  0  0  0  0  0  0  0  0  0  0
    1.1204   -1.0834    0.5230 O   0  0  0  0  0  0  0  0  0  0  0  0
    3.4502   -0.1904    0.5195 N   0  0  0  0  0  0  0  0  0  0  0  0
    4.4303   -1.0475    1.0814 C   0  0  0  0  0  0  0  0  0  0  0  0
    5.7747   -0.8708    0.8547 C   0  0  0  0  0  0  0  0  0  0  0  0
    6.6886   -1.7191    1.4179 C   0  0  0  0  0  0  0  0  0  0  0  0
    6.2796   -2.7603    2.2183 C   0  0  0  0  0  0  0  0  0  0  0  0
    4.9446   -2.9704    2.4691 C   0  0  0  0  0  0  0  0  0  0  0  0
    4.5346   -4.0110    3.2683 F   0  0  0  0  0  0  0  0  0  0  0  0
    4.0508   -2.1087    1.8944 C   0  0  0  0  0  0  0  0  0  0  0  0
    3.4036    1.0626   -0.1839 C   0  0  1  0  0  0  0  0  0  0  0  0
    3.7757    0.9512   -1.6066 C   0  0  0  0  0  0  0  0  0  0  0  0
    4.6068    1.8971   -2.1820 C   0  0  0  0  0  0  0  0  0  0  0  0
    4.9586    1.7913   -3.5124 C   0  0  0  0  0  0  0  0  0  0  0  0
    4.5201    0.7711   -4.3274 C   0  0  0  0  0  0  0  0  0  0  0  0
    4.9886    0.6669   -6.0188 Cl  0  0  0  0  0  0  0  0  0  0  0  0
    3.6887   -0.1793   -3.7601 C   0  0  0  0  0  0  0  0  0  0  0  0
    3.3335   -0.0711   -2.4140 C   0  0  0  0  0  0  0  0  0  0  0  0
   -4.1804   -1.7984    0.4659 C   0  0  0  0  0  0  0  0  0  0  0  0
   -3.3295   -2.2774   -0.3585 O   0  0  0  0  0  0  0  0  0  0  0  0
   -5.1823   -2.6511    0.8607 O   0  0  0  0  0  0  0  0  0  0  0  0
   -5.2398   -3.9700    0.3665 C   0  0  0  0  0  0  0  0  0  0  0  0
   -7.5908   -1.5735    0.5991 H   0  0  0  0  0  0  0  0  0  0  0  0
   -6.5457   -1.1826   -0.8572 H   0  0  0  0  0  0  0  0  0  0  0  0
   -8.0806   -0.2695   -0.5204 H   0  0  0  0  0  0  0  0  0  0  0  0
   -6.5478   -0.0646    1.8439 H   0  0  0  0  0  0  0  0  0  0  0  0
   -7.0765    1.2460    0.7342 H   0  0  0  0  0  0  0  0  0  0  0  0
   -4.8760    1.5586    1.0225 H   0  0  0  0  0  0  0  0  0  0  0  0
   -3.8753    1.5333   -1.0133 H   0  0  0  0  0  0  0  0  0  0  0  0
   -4.7363    0.0464   -1.6160 H   0  0  0  0  0  0  0  0  0  0  0  0
   -5.6070    1.6424   -1.3212 H   0  0  0  0  0  0  0  0  0  0  0  0
   -4.0023   -0.3876    2.0796 H   0  0  0  0  0  0  0  0  0  0  0  0
   -2.5672    0.0702   -0.5395 H   0  0  0  0  0  0  0  0  0  0  0  0
   -1.1835    1.5740   -1.0894 H   0  0  0  0  0  0  0  0  0  0  0  0
   -0.4708   -0.0138   -0.7581 H   0  0  0  0  0  0  0  0  0  0  0  0
    0.9359    2.6597   -1.0311 H   0  0  0  0  0  0  0  0  0  0  0  0
    1.2144    1.0655   -1.9069 H   0  0  0  0  0  0  0  0  0  0  0  0
    2.4213    1.9283    2.1125 H   0  0  0  0  0  0  0  0  0  0  0  0
    1.6372    3.1299    1.0574 H   0  0  0  0  0  0  0  0  0  0  0  0
   -0.1949    2.5793    2.4108 H   0  0  0  0  0  0  0  0  0  0  0  0
    0.4005    0.9262    2.6925 H   0  0  0  0  0  0  0  0  0  0  0  0
    6.1131   -0.0488    0.2209 H   0  0  0  0  0  0  0  0  0  0  0  0
    7.7744   -1.5880    1.2426 H   0  0  0  0  0  0  0  0  0  0  0  0
    6.9985   -3.4345    2.6670 H   0  0  0  0  0  0  0  0  0  0  0  0
    2.9745   -2.2532    2.0779 H   0  0  0  0  0  0  0  0  0  0  0  0
    4.0205    1.8083    0.3888 H   0  0  0  0  0  0  0  0  0  0  0  0
    4.9727    2.7218   -1.5612 H   0  0  0  0  0  0  0  0  0  0  0  0
    5.6155    2.5284   -3.9917 H   0  0  0  0  0  0  0  0  0  0  0  0
    3.3242   -0.9966   -4.3741 H   0  0  0  0  0  0  0  0  0  0  0  0
    2.6833   -0.8182   -1.9725 H   0  0  0  0  0  0  0  0  0  0  0  0
   -4.6170   -4.6568    0.9778 H   0  0  0  0  0  0  0  0  0  0  0  0
   -6.2839   -4.3085    0.4748 H   0  0  0  0  0  0  0  0  0  0  0  0
   -4.9201   -4.0494   -0.6765 H   0  0  0  0  0  0  0  0  0  0  0  0
  1  2  1  0
  2  3  1  0
  3  4  1  0
  3  5  1  0
  5  6  1  0
  6  7  1  0
  7  8  2  0
  7  9  1  0
  9 10  1  0
 10 11  1  0
 11 12  1  0
 12 13  1  0
 13 14  1  0
 12 15  1  0
 15 16  2  0
 15 17  1  0
 17 18  1  0
 18 19  2  0
 19 20  1  0
 20 21  2  0
 21 22  1  0
 22 23  1  0
 22 24  2  0
 17 25  1  0
 25 26  1  0
 26 27  2  0
 27 28  1  0
 28 29  2  0
 29 30  1  0
 29 31  1  0
 31 32  2  0
  5 33  1  0
 33 34  2  0
 33 35  1  0
 35 36  1  0
 14  9  1  0
 24 18  1  0
 32 26  1  0
 25 12  1  0
  1 37  1  0
  1 38  1  0
  1 39  1  0
  2 40  1  0
  2 41  1  0
  3 42  1  1
  4 43  1  0
  4 44  1  0
  4 45  1  0
  5 46  1  1
  6 47  1  0
 10 48  1  0
 10 49  1  0
 11 50  1  0
 11 51  1  0
 13 52  1  0
 13 53  1  0
 14 54  1  0
 14 55  1  0
 19 56  1  0
 20 57  1  0
 21 58  1  0
 24 59  1  0
 25 60  1  1
 27 61  1  0
 28 62  1  0
 31 63  1  0
 32 64  1  0
 36 65  1  0
 36 66  1  0
 36 67  1  0
M  END
>  <fragInfo>  (1) 
9 10 11 12 13 14 15 16 17 25 48 49 50 51 52 53 54 55 60
1 37 38 39
2 40 41
3 42
4 43 44 45
5 46
6 7 8 47
18 19 20 21 22 23 24 56 57 58 59
26 27 28 29 30 31 32 61 62 63 64
33 34
35
36 65 66 67


>  <torsionInfo>  (1) 
7 9 6 0
17 18 0 7
25 26 0 8
1 2 1 2
2 3 2 3
3 4 3 4
3 5 3 5
5 6 5 6
5 33 5 9
33 35 9 10
35 36 10 11


>  <atomInfo>  (1) 
1  -0.0650356C 
2  -0.0510302C 
3  -0.0131967C 
4  -0.0599687C 
5  0.13075216C 
6  -0.3241245N 
7  0.31761818C 
8  -0.2486474OA
9  -0.3247404N 
10 0.02334501C 
11 -0.0183748C 
12 0.07802534C 
13 -0.0183748C 
14 0.02334501C 
15 0.23590627C 
16 -0.2737396OA
17 -0.3031680N 
18 0.04729159A 
19 -0.0380781A 
20 -0.0572842A 
21 -0.0261675A 
22 0.12478585A 
23 -0.2069296F 
24 -0.0023919A 
25 0.07643041C 
26 -0.0238947A 
27 -0.0554342A 
28 -0.0431757A 
29 0.04057096A 
30 -0.0843441Cl
31 -0.0431757A 
32 -0.0554342A 
33 0.32819461C 
34 -0.2498040OA
35 -0.4674771OA
36 0.08066878C 
37 0.02304679H 
38 0.02304679H 
39 0.02304679H 
40 0.02673678H 
41 0.02673678H 
42 0.03269372H 
43 0.02341031H 
44 0.02341031H 
45 0.02341031H 
46 0.06546949H 
47 0.16581578HD
48 0.04948350H 
49 0.04948350H 
50 0.02965750H 
51 0.02965750H 
52 0.02965750H 
53 0.02965750H 
54 0.04948350H 
55 0.04948350H 
56 0.06448117H 
57 0.06245054H 
58 0.06536064H 
59 0.06758596H 
60 0.05976927H 
61 0.06269343H 
62 0.06385161H 
63 0.06385161H 
64 0.06269343H 
65 0.06697772H 
66 0.06697772H 
67 0.06697772H 


$$$$
