
     RDKit          3D

 70 72  0  0  0  0  0  0  0  0999 V2000
   -7.8614   -1.9420   -2.3221 C   0  0  0  0  0  0  0  0  0  0  0  0
   -8.0477   -1.7284   -0.8206 C   0  0  0  0  0  0  0  0  0  0  0  0
   -9.1853   -0.7617   -0.5749 C   0  0  0  0  0  0  0  0  0  0  0  0
   -6.8700   -1.1078   -0.3451 O   0  0  0  0  0  0  0  0  0  0  0  0
   -6.0435   -1.6833    0.6058 C   0  0  0  0  0  0  0  0  0  0  0  0
   -6.4371   -2.8286    1.0197 O   0  0  0  0  0  0  0  0  0  0  0  0
   -4.8003   -1.0791    1.1370 C   0  0  0  0  0  0  0  0  0  0  0  0
   -4.6536    0.2362    0.5467 N   0  0  0  0  0  0  0  0  0  0  0  0
   -5.0838    1.3607    1.2535 C   0  0  0  0  0  0  0  0  0  0  0  0
   -6.3359    1.9166    1.1550 C   0  0  0  0  0  0  0  0  0  0  0  0
   -6.6456    3.0285    1.8979 C   0  0  0  0  0  0  0  0  0  0  0  0
   -5.7581    3.6362    2.7564 C   0  0  0  0  0  0  0  0  0  0  0  0
   -4.4917    3.0818    2.8620 C   0  0  0  0  0  0  0  0  0  0  0  0
   -3.3168    3.7977    3.9284 Cl  0  0  0  0  0  0  0  0  0  0  0  0
   -4.1558    1.9639    2.1257 C   0  0  0  0  0  0  0  0  0  0  0  0
   -3.9108    0.2523   -0.9993 S   0  0  0  0  0  0  0  0  0  0  0  0
   -4.6476   -0.6597   -1.9749 O   0  0  0  0  0  0  0  0  0  0  0  0
   -3.9284    1.5989   -1.6463 O   0  0  0  0  0  0  0  0  0  0  0  0
   -2.3042   -0.3889   -0.8418 C   0  0  0  0  0  0  0  0  0  0  0  0
   -2.0961   -1.7366   -1.0015 C   0  0  0  0  0  0  0  0  0  0  0  0
   -0.8273   -2.2776   -0.8805 C   0  0  0  0  0  0  0  0  0  0  0  0
    0.2507   -1.4271   -0.5910 C   0  0  0  0  0  0  0  0  0  0  0  0
    0.0757   -0.0761   -0.4254 C   0  0  0  0  0  0  0  0  0  0  0  0
    1.0874    0.8486   -0.1214 N   0  0  0  0  0  0  0  0  0  0  0  0
    2.4143    0.5809    0.2509 C   0  0  0  0  0  0  0  0  0  0  0  0
    2.7988   -0.6038    0.3430 O   0  0  0  0  0  0  0  0  0  0  0  0
    3.4045    1.6604    0.5471 C   0  0  0  0  0  0  0  0  0  0  0  0
    4.7275    1.0793    0.9150 C   0  0  0  0  0  0  0  0  0  0  0  0
    5.2261    0.2853   -0.1678 N   0  0  0  0  0  0  0  0  0  0  0  0
    6.4859   -0.3627   -0.0188 C   0  0  0  0  0  0  0  0  0  0  0  0
    7.1117   -0.2189    1.0441 O   0  0  0  0  0  0  0  0  0  0  0  0
    6.9992   -1.1305   -1.0283 O   0  0  0  0  0  0  0  0  0  0  0  0
    8.2317   -1.7846   -0.9256 C   0  0  0  0  0  0  0  0  0  0  0  0
    9.3894   -0.9155   -0.7034 C   0  0  0  0  0  0  0  0  0  0  0  0
    9.9063   -0.2029   -1.7788 C   0  0  0  0  0  0  0  0  0  0  0  0
   11.0053    0.6323   -1.6261 C   0  0  0  0  0  0  0  0  0  0  0  0
   11.6037    0.7661   -0.3912 C   0  0  0  0  0  0  0  0  0  0  0  0
   11.0679    0.0471    0.6530 C   0  0  0  0  0  0  0  0  0  0  0  0
    9.9716   -0.7910    0.5182 C   0  0  0  0  0  0  0  0  0  0  0  0
   -1.2353    0.4115   -0.5607 C   0  0  0  0  0  0  0  0  0  0  0  0
   -8.7694   -2.3545   -2.7984 H   0  0  0  0  0  0  0  0  0  0  0  0
   -7.0428   -2.6708   -2.4878 H   0  0  0  0  0  0  0  0  0  0  0  0
   -7.5650   -0.9683   -2.7417 H   0  0  0  0  0  0  0  0  0  0  0  0
   -8.1910   -2.6930   -0.3379 H   0  0  0  0  0  0  0  0  0  0  0  0
   -9.4591   -0.8804    0.5073 H   0  0  0  0  0  0  0  0  0  0  0  0
  -10.0277   -1.0560   -1.2202 H   0  0  0  0  0  0  0  0  0  0  0  0
   -8.8426    0.2813   -0.7335 H   0  0  0  0  0  0  0  0  0  0  0  0
   -3.9046   -1.7178    0.8732 H   0  0  0  0  0  0  0  0  0  0  0  0
   -4.7855   -1.0496    2.2439 H   0  0  0  0  0  0  0  0  0  0  0  0
   -7.0447    1.4604    0.4884 H   0  0  0  0  0  0  0  0  0  0  0  0
   -7.6330    3.4594    1.8146 H   0  0  0  0  0  0  0  0  0  0  0  0
   -6.0341    4.5122    3.3281 H   0  0  0  0  0  0  0  0  0  0  0  0
   -3.1578    1.5702    2.2430 H   0  0  0  0  0  0  0  0  0  0  0  0
   -2.9465   -2.3662   -1.2247 H   0  0  0  0  0  0  0  0  0  0  0  0
   -0.6449   -3.3291   -1.0019 H   0  0  0  0  0  0  0  0  0  0  0  0
    1.2445   -1.8575   -0.5044 H   0  0  0  0  0  0  0  0  0  0  0  0
    0.8541    1.8934   -0.1735 H   0  0  0  0  0  0  0  0  0  0  0  0
    3.5123    2.2289   -0.4183 H   0  0  0  0  0  0  0  0  0  0  0  0
    3.0562    2.3706    1.2972 H   0  0  0  0  0  0  0  0  0  0  0  0
    4.5929    0.5050    1.8591 H   0  0  0  0  0  0  0  0  0  0  0  0
    5.4077    1.9193    1.1708 H   0  0  0  0  0  0  0  0  0  0  0  0
    4.6776    0.1783   -1.0587 H   0  0  0  0  0  0  0  0  0  0  0  0
    8.3967   -2.3388   -1.8781 H   0  0  0  0  0  0  0  0  0  0  0  0
    8.1489   -2.5570   -0.1274 H   0  0  0  0  0  0  0  0  0  0  0  0
    9.4272   -0.3176   -2.7401 H   0  0  0  0  0  0  0  0  0  0  0  0
   11.3935    1.1790   -2.4752 H   0  0  0  0  0  0  0  0  0  0  0  0
   12.4705    1.4233   -0.2650 H   0  0  0  0  0  0  0  0  0  0  0  0
   11.5404    0.1569    1.6129 H   0  0  0  0  0  0  0  0  0  0  0  0
    9.5833   -1.3410    1.3660 H   0  0  0  0  0  0  0  0  0  0  0  0
   -1.3781    1.4672   -0.4317 H   0  0  0  0  0  0  0  0  0  0  0  0
  1  2  1  0
  2  3  1  0
  2  4  1  0
  4  5  1  0
  5  6  2  0
  5  7  1  0
  7  8  1  0
  8  9  1  0
  9 10  2  0
 10 11  1  0
 11 12  2  0
 12 13  1  0
 13 14  1  0
 13 15  2  0
  8 16  1  0
 16 17  2  0
 16 18  2  0
 16 19  1  0
 19 20  2  0
 20 21  1  0
 21 22  2  0
 22 23  1  0
 23 24  1  0
 24 25  1  0
 25 26  2  0
 25 27  1  0
 27 28  1  0
 28 29  1  0
 29 30  1  0
 30 31  2  0
 30 32  1  0
 32 33  1  0
 33 34  1  0
 34 35  2  0
 35 36  1  0
 36 37  2  0
 37 38  1  0
 38 39  2  0
 23 40  2  0
 15  9  1  0
 40 19  1  0
 39 34  1  0
  1 41  1  0
  1 42  1  0
  1 43  1  0
  2 44  1  0
  3 45  1  0
  3 46  1  0
  3 47  1  0
  7 48  1  0
  7 49  1  0
 10 50  1  0
 11 51  1  0
 12 52  1  0
 15 53  1  0
 20 54  1  0
 21 55  1  0
 22 56  1  0
 24 57  1  0
 27 58  1  0
 27 59  1  0
 28 60  1  0
 28 61  1  0
 29 62  1  0
 33 63  1  0
 33 64  1  0
 35 65  1  0
 36 66  1  0
 37 67  1  0
 38 68  1  0
 39 69  1  0
 40 70  1  0
M  END
>  <fragInfo>  (1) 
9 10 11 12 13 14 15 50 51 52 53
1 41 42 43
2 44
3 45 46 47
4
5 6
7 48 49
8
16 17 18
19 20 21 22 23 40 54 55 56 70
24 25 26 57
27 58 59
28 60 61
29 30 31 62
32
33 63 64
34 35 36 37 38 39 65 66 67 68 69


>  <torsionInfo>  (1) 
8 9 7 0
1 2 1 2
2 3 2 3
2 4 2 4
4 5 4 5
5 7 5 6
7 8 6 7
8 16 7 8
16 19 8 9
23 24 9 10
25 27 10 11
27 28 11 12
28 29 12 13
30 32 13 14
32 33 14 15
33 34 15 16


>  <atomInfo>  (1) 
1  -0.0279282C 
2  0.09625077C 
3  -0.0279282C 
4  -0.4616209OA
5  0.32656966C 
6  -0.2500885OA
7  0.13209972C 
8  -0.2550549N 
9  0.05398637A 
10 -0.0375871A 
11 -0.0586924A 
12 -0.0433738A 
13 0.04264419A 
14 -0.0842631Cl
15 -0.0189781A 
16 0.26443090S 
17 -0.2010187OA
18 -0.2010187OA
19 0.08960317A 
20 -0.0414675A 
21 -0.0588338A 
22 -0.0384473A 
23 0.04203282A 
24 -0.3259944N 
25 0.22564759C 
26 -0.2746808OA
27 0.04440288C 
28 0.02953367C 
29 -0.3209598N 
30 0.40697832C 
31 -0.2245935OA
32 -0.4446899OA
33 0.11830663C 
34 -0.0105793A 
35 -0.0556290A 
36 -0.0618669A 
37 -0.0622444A 
38 -0.0618669A 
39 -0.0556290A 
40 -0.0179125A 
41 0.02680078H 
42 0.02680078H 
43 0.02680078H 
44 0.07376985H 
45 0.02680078H 
46 0.02680078H 
47 0.02680078H 
48 0.06281620H 
49 0.06281620H 
50 0.06449977H 
51 0.06239886H 
52 0.06384271H 
53 0.06607933H 
54 0.06371230H 
55 0.06239001H 
56 0.06447116H 
57 0.16943139HD
58 0.03853611H 
59 0.03853611H 
60 0.04976784H 
61 0.04976784H 
62 0.16659917HD
63 0.07604626H 
64 0.07604626H 
65 0.06268997H 
66 0.06228078H 
67 0.06226892H 
68 0.06228078H 
69 0.06268997H 
70 0.06591994H 


$$$$
