
     RDKit          3D

 54 58  0  0  0  0  0  0  0  0999 V2000
    3.5636    1.5707    0.8853 O   0  0  0  0  0  0  0  0  0  0  0  0
    3.1703    0.5674    0.2189 C   0  0  0  0  0  0  0  0  0  0  0  0
    4.0437   -0.2665   -0.4782 N   0  0  0  0  0  0  0  0  0  0  0  0
    5.4456   -0.1029   -0.5321 C   0  0  0  0  0  0  0  0  0  0  0  0
    6.1078    1.0140   -0.0968 C   0  0  0  0  0  0  0  0  0  0  0  0
    7.5030    1.1007   -0.1666 C   0  0  0  0  0  0  0  0  0  0  0  0
    8.1080    2.2262    0.2766 F   0  0  0  0  0  0  0  0  0  0  0  0
    8.2614    0.0832   -0.6683 C   0  0  0  0  0  0  0  0  0  0  0  0
    7.6204   -1.0580   -1.1163 C   0  0  0  0  0  0  0  0  0  0  0  0
    8.3763   -2.0613   -1.6121 F   0  0  0  0  0  0  0  0  0  0  0  0
    6.2546   -1.1191   -1.0376 C   0  0  0  0  0  0  0  0  0  0  0  0
    1.7658    0.3565    0.2351 N   0  0  0  0  0  0  0  0  0  0  0  0
    1.1885   -0.7517   -0.4636 C   0  0  0  0  0  0  0  0  0  0  0  0
   -0.1377   -1.1653    0.1661 C   0  0  0  0  0  0  0  0  0  0  0  0
   -1.0517    0.0004    0.1835 C   0  0  0  0  0  0  0  0  0  0  0  0
   -0.3817    1.3445    0.0395 C   0  0  0  0  0  0  0  0  0  0  0  0
    0.8563    1.2597    0.9479 C   0  0  0  0  0  0  0  0  0  0  0  0
   -1.9450    0.0710    1.4015 C   0  0  0  0  0  0  0  0  0  0  0  0
   -1.9338   -0.2478    2.5912 O   0  0  0  0  0  0  0  0  0  0  0  0
   -2.8857    0.7164    0.5213 N   0  0  0  0  0  0  0  0  0  0  0  0
   -3.8464    1.7341    0.6345 C   0  0  0  0  0  0  0  0  0  0  0  0
   -3.9096    2.5643    1.7459 C   0  0  0  0  0  0  0  0  0  0  0  0
   -4.8354    3.5443    1.8543 N   0  0  0  0  0  0  0  0  0  0  0  0
   -5.7528    3.7784    0.8958 C   0  0  0  0  0  0  0  0  0  0  0  0
   -5.7059    2.9636   -0.2173 C   0  0  0  0  0  0  0  0  0  0  0  0
   -6.8766    3.2352   -1.4836 Cl  0  0  0  0  0  0  0  0  0  0  0  0
   -4.7736    1.9552   -0.3573 C   0  0  0  0  0  0  0  0  0  0  0  0
   -2.3671   -0.1704   -0.5087 C   0  0  2  0  0  0  0  0  0  0  0  0
   -2.9187   -1.5207   -0.2906 C   0  0  0  0  0  0  0  0  0  0  0  0
   -3.4039   -2.2548   -1.3456 C   0  0  0  0  0  0  0  0  0  0  0  0
   -3.9310   -3.5354   -1.1287 C   0  0  0  0  0  0  0  0  0  0  0  0
   -3.9688   -4.0736    0.1479 C   0  0  0  0  0  0  0  0  0  0  0  0
   -3.4673   -3.2936    1.1783 C   0  0  0  0  0  0  0  0  0  0  0  0
   -2.9706   -2.0712    0.9282 N   0  0  0  0  0  0  0  0  0  0  0  0
    3.6278   -1.0847   -1.0156 H   0  0  0  0  0  0  0  0  0  0  0  0
    5.6065    1.8691    0.3035 H   0  0  0  0  0  0  0  0  0  0  0  0
    9.3434    0.1766   -0.7113 H   0  0  0  0  0  0  0  0  0  0  0  0
    5.7558   -2.0097   -1.3877 H   0  0  0  0  0  0  0  0  0  0  0  0
    0.9427   -0.5043   -1.5295 H   0  0  0  0  0  0  0  0  0  0  0  0
    1.8218   -1.6593   -0.5181 H   0  0  0  0  0  0  0  0  0  0  0  0
   -0.5691   -1.9243   -0.5491 H   0  0  0  0  0  0  0  0  0  0  0  0
    0.0016   -1.6822    1.1345 H   0  0  0  0  0  0  0  0  0  0  0  0
   -1.0445    2.1298    0.4139 H   0  0  0  0  0  0  0  0  0  0  0  0
   -0.0573    1.5547   -0.9805 H   0  0  0  0  0  0  0  0  0  0  0  0
    1.2966    2.2369    1.1369 H   0  0  0  0  0  0  0  0  0  0  0  0
    0.5432    0.7462    1.8777 H   0  0  0  0  0  0  0  0  0  0  0  0
   -3.2121    2.4469    2.5629 H   0  0  0  0  0  0  0  0  0  0  0  0
   -6.4848    4.5800    1.0206 H   0  0  0  0  0  0  0  0  0  0  0  0
   -4.7422    1.3114   -1.2463 H   0  0  0  0  0  0  0  0  0  0  0  0
   -2.4427    0.2168   -1.5364 H   0  0  0  0  0  0  0  0  0  0  0  0
   -3.4032   -1.8925   -2.3625 H   0  0  0  0  0  0  0  0  0  0  0  0
   -4.3187   -4.1349   -1.9318 H   0  0  0  0  0  0  0  0  0  0  0  0
   -4.3756   -5.0697    0.3303 H   0  0  0  0  0  0  0  0  0  0  0  0
   -3.4911   -3.7003    2.1788 H   0  0  0  0  0  0  0  0  0  0  0  0
  1  2  2  0
  2  3  1  0
  3  4  1  0
  4  5  2  0
  5  6  1  0
  6  7  1  0
  6  8  2  0
  8  9  1  0
  9 10  1  0
  9 11  2  0
  2 12  1  0
 12 13  1  0
 13 14  1  0
 14 15  1  0
 15 16  1  0
 16 17  1  0
 15 18  1  0
 18 19  2  0
 18 20  1  0
 20 21  1  0
 21 22  2  0
 22 23  1  0
 23 24  2  0
 24 25  1  0
 25 26  1  0
 25 27  2  0
 20 28  1  0
 28 29  1  0
 29 30  2  0
 30 31  1  0
 31 32  2  0
 32 33  1  0
 33 34  2  0
 11  4  1  0
 17 12  1  0
 27 21  1  0
 34 29  1  0
 28 15  1  0
  3 35  1  0
  5 36  1  0
  8 37  1  0
 11 38  1  0
 13 39  1  0
 13 40  1  0
 14 41  1  0
 14 42  1  0
 16 43  1  0
 16 44  1  0
 17 45  1  0
 17 46  1  0
 22 47  1  0
 24 48  1  0
 27 49  1  0
 28 50  1  6
 30 51  1  0
 31 52  1  0
 32 53  1  0
 33 54  1  0
M  END
>  <fragInfo>  (1) 
12 13 14 15 16 17 18 19 20 28 39 40 41 42 43 44 45 46 50
1 2 3 35
4 5 6 7 8 9 10 11 36 37 38
21 22 23 24 25 26 27 47 48 49
29 30 31 32 33 34 51 52 53 54


>  <torsionInfo>  (1) 
2 12 1 0
20 21 0 3
28 29 0 4
3 4 1 2


>  <atomInfo>  (1) 
1  -0.2482699OA
2  0.32134219C 
3  -0.3076294N 
4  0.04820000A 
5  -0.0023614A 
6  0.12769352A 
7  -0.2068170F 
8  0.00971451A 
9  0.12769352A 
10 -0.2068170F 
11 -0.0023614A 
12 -0.3244611N 
13 0.02335795C 
14 -0.0183143C 
15 0.07955361C 
16 -0.0183143C 
17 0.02335795C 
18 0.23607193C 
19 -0.2737366OA
20 -0.3000737N 
21 0.06426940A 
22 0.05071034A 
23 -0.2609969NA
24 0.04556482A 
25 0.06095901A 
26 -0.0825739Cl
27 -0.0164180A 
28 0.09356357C 
29 0.06440327A 
30 -0.0383694A 
31 -0.0588457A 
32 -0.0437944A 
33 0.02716027A 
34 -0.2590516NA
35 0.17137277HD
36 0.06758253H 
37 0.06847673H 
38 0.06758253H 
39 0.04948371H 
40 0.04948371H 
41 0.02965851H 
42 0.02965851H 
43 0.02965851H 
44 0.02965851H 
45 0.04948371H 
46 0.04948371H 
47 0.08625136H 
48 0.08559719H 
49 0.06617592H 
50 0.06142230H 
51 0.06427972H 
52 0.06239211H 
53 0.06389695H 
54 0.08399205H 


$$$$
