
     RDKit          3D

 53 57  0  0  0  0  0  0  0  0999 V2000
    3.3248    1.5915   -0.1093 O   0  0  0  0  0  0  0  0  0  0  0  0
    2.8656    0.4811   -0.3922 C   0  0  0  0  0  0  0  0  0  0  0  0
    3.7074   -0.6473   -0.4039 N   0  0  0  0  0  0  0  0  0  0  0  0
    5.0838   -0.7051   -0.1284 C   0  0  0  0  0  0  0  0  0  0  0  0
    5.7302   -1.9380   -0.0300 C   0  0  0  0  0  0  0  0  0  0  0  0
    7.0635   -2.0230    0.2270 C   0  0  0  0  0  0  0  0  0  0  0  0
    7.7214   -3.2101    0.3287 F   0  0  0  0  0  0  0  0  0  0  0  0
    7.8417   -0.8922    0.4029 C   0  0  0  0  0  0  0  0  0  0  0  0
    7.2182    0.3195    0.3084 C   0  0  0  0  0  0  0  0  0  0  0  0
    7.9405    1.4514    0.4733 F   0  0  0  0  0  0  0  0  0  0  0  0
    5.8535    0.4019    0.0451 C   0  0  0  0  0  0  0  0  0  0  0  0
    1.4658    0.3501   -0.7088 N   0  0  0  0  0  0  0  0  0  0  0  0
    0.9199   -0.9368   -1.0472 C   0  0  0  0  0  0  0  0  0  0  0  0
   -0.4411   -0.8834   -1.6789 C   0  0  0  0  0  0  0  0  0  0  0  0
   -1.3376    0.1971   -1.1660 C   0  0  0  0  0  0  0  0  0  0  0  0
   -0.7442    1.0915   -0.1343 C   0  0  0  0  0  0  0  0  0  0  0  0
    0.6275    1.5402   -0.6737 C   0  0  0  0  0  0  0  0  0  0  0  0
   -1.9357    1.0546   -2.2423 C   0  0  0  0  0  0  0  0  0  0  0  0
   -1.6209    1.4286   -3.3729 O   0  0  0  0  0  0  0  0  0  0  0  0
   -3.0436    1.2067   -1.2831 N   0  0  0  0  0  0  0  0  0  0  0  0
   -3.7494    2.4199   -1.0464 C   0  0  0  0  0  0  0  0  0  0  0  0
   -5.1413    2.5452   -0.5887 C   0  0  0  0  0  0  0  0  0  0  0  0
   -4.0988    2.7133    0.4248 C   0  0  0  0  0  0  0  0  0  0  0  0
   -2.8065   -0.1675   -1.0120 C   0  0  2  0  0  0  0  0  0  0  0  0
   -3.2109   -0.8406    0.1863 C   0  0  0  0  0  0  0  0  0  0  0  0
   -4.5093   -0.8600    0.6135 C   0  0  0  0  0  0  0  0  0  0  0  0
   -4.9071   -1.4985    1.7734 C   0  0  0  0  0  0  0  0  0  0  0  0
   -3.9765   -2.1487    2.5460 C   0  0  0  0  0  0  0  0  0  0  0  0
   -4.4227   -2.9744    4.0257 Cl  0  0  0  0  0  0  0  0  0  0  0  0
   -2.6755   -2.1566    2.1606 C   0  0  0  0  0  0  0  0  0  0  0  0
   -2.2932   -1.5035    0.9823 C   0  0  0  0  0  0  0  0  0  0  0  0
    3.2281   -1.5789   -0.6557 H   0  0  0  0  0  0  0  0  0  0  0  0
    5.1499   -2.8134   -0.1616 H   0  0  0  0  0  0  0  0  0  0  0  0
    8.9004   -0.9230    0.6080 H   0  0  0  0  0  0  0  0  0  0  0  0
    5.4630    1.3838   -0.0149 H   0  0  0  0  0  0  0  0  0  0  0  0
    1.5971   -1.3899   -1.8319 H   0  0  0  0  0  0  0  0  0  0  0  0
    0.9586   -1.6040   -0.1562 H   0  0  0  0  0  0  0  0  0  0  0  0
   -0.8887   -1.9153   -1.5714 H   0  0  0  0  0  0  0  0  0  0  0  0
   -0.3338   -0.7516   -2.7779 H   0  0  0  0  0  0  0  0  0  0  0  0
   -1.3519    2.0226   -0.0765 H   0  0  0  0  0  0  0  0  0  0  0  0
   -0.5446    0.6678    0.8434 H   0  0  0  0  0  0  0  0  0  0  0  0
    0.4959    1.8958   -1.7085 H   0  0  0  0  0  0  0  0  0  0  0  0
    1.0776    2.3124   -0.0096 H   0  0  0  0  0  0  0  0  0  0  0  0
   -3.3831    3.3261   -1.6436 H   0  0  0  0  0  0  0  0  0  0  0  0
   -5.8785    1.7310   -0.5626 H   0  0  0  0  0  0  0  0  0  0  0  0
   -5.6724    3.5136   -0.8826 H   0  0  0  0  0  0  0  0  0  0  0  0
   -3.9705    1.9070    1.1616 H   0  0  0  0  0  0  0  0  0  0  0  0
   -3.7801    3.7143    0.7933 H   0  0  0  0  0  0  0  0  0  0  0  0
   -3.0693   -0.7818   -1.9274 H   0  0  0  0  0  0  0  0  0  0  0  0
   -5.3107   -0.3748    0.0329 H   0  0  0  0  0  0  0  0  0  0  0  0
   -5.9515   -1.4969    2.0903 H   0  0  0  0  0  0  0  0  0  0  0  0
   -1.9421   -2.6751    2.7787 H   0  0  0  0  0  0  0  0  0  0  0  0
   -1.2431   -1.5769    0.7669 H   0  0  0  0  0  0  0  0  0  0  0  0
  1  2  2  0
  2  3  1  0
  3  4  1  0
  4  5  2  0
  5  6  1  0
  6  7  1  0
  6  8  2  0
  8  9  1  0
  9 10  1  0
  9 11  2  0
  2 12  1  0
 12 13  1  0
 13 14  1  0
 14 15  1  0
 15 16  1  0
 16 17  1  0
 15 18  1  0
 18 19  2  0
 18 20  1  0
 20 21  1  0
 21 22  1  0
 22 23  1  0
 20 24  1  0
 24 25  1  0
 25 26  2  0
 26 27  1  0
 27 28  2  0
 28 29  1  0
 28 30  1  0
 30 31  2  0
 11  4  1  0
 17 12  1  0
 23 21  1  0
 31 25  1  0
 24 15  1  0
  3 32  1  0
  5 33  1  0
  8 34  1  0
 11 35  1  0
 13 36  1  0
 13 37  1  0
 14 38  1  0
 14 39  1  0
 16 40  1  0
 16 41  1  0
 17 42  1  0
 17 43  1  0
 21 44  1  0
 22 45  1  0
 22 46  1  0
 23 47  1  0
 23 48  1  0
 24 49  1  6
 26 50  1  0
 27 51  1  0
 30 52  1  0
 31 53  1  0
M  END
>  <fragInfo>  (1) 
12 13 14 15 16 17 18 19 20 24 36 37 38 39 40 41 42 43 49
1 2 3 32
4 5 6 7 8 9 10 11 33 34 35
21 22 23 44 45 46 47 48
25 26 27 28 29 30 31 50 51 52 53


>  <torsionInfo>  (1) 
2 12 1 0
20 21 0 3
24 25 0 4
3 4 1 2


>  <atomInfo>  (1) 
1  -0.2482699OA
2  0.32134219C 
3  -0.3076294N 
4  0.04820000A 
5  -0.0023614A 
6  0.12769352A 
7  -0.2068170F 
8  0.00971451A 
9  0.12769352A 
10 -0.2068170F 
11 -0.0023614A 
12 -0.3244612N 
13 0.02335647C 
14 -0.0184013C 
15 0.07730991C 
16 -0.0184013C 
17 0.02335647C 
18 0.23166926C 
19 -0.2741221OA
20 -0.3310124N 
21 0.03249309C 
22 -0.0305840C 
23 -0.0305840C 
24 0.07179375C 
25 -0.0242568A 
26 -0.0554469A 
27 -0.0431759A 
28 0.04057096A 
29 -0.0843441Cl
30 -0.0431759A 
31 -0.0554469A 
32 0.17137277HD
33 0.06758253H 
34 0.06847673H 
35 0.06758253H 
36 0.04948370H 
37 0.04948370H 
38 0.02965706H 
39 0.02965706H 
40 0.02965706H 
41 0.02965706H 
42 0.04948370H 
43 0.04948370H 
44 0.05307375H 
45 0.02883764H 
46 0.02883764H 
47 0.02883764H 
48 0.02883764H 
49 0.05938459H 
50 0.06269322H 
51 0.06385161H 
52 0.06385161H 
53 0.06269322H 


$$$$
