
     RDKit          3D

 56 59  0  0  0  0  0  0  0  0999 V2000
   -3.5357    3.2932    0.0228 C   0  0  0  0  0  0  0  0  0  0  0  0
   -3.9616    2.0604    0.7420 C   0  0  0  0  0  0  0  0  0  0  0  0
   -5.1722    1.5071   -0.0252 C   0  0  0  0  0  0  0  0  0  0  0  0
   -3.0342    1.0177    0.8680 N   0  0  0  0  0  0  0  0  0  0  0  0
   -1.8175    1.1537    1.5691 C   0  0  0  0  0  0  0  0  0  0  0  0
   -1.1038    0.5785    0.3333 C   0  0  0  0  0  0  0  0  0  0  0  0
   -0.2490    1.6901   -0.2452 C   0  0  0  0  0  0  0  0  0  0  0  0
    1.0354    1.7044    0.5949 C   0  0  0  0  0  0  0  0  0  0  0  0
    1.7640    0.5091    0.1720 N   0  0  0  0  0  0  0  0  0  0  0  0
    3.2032    0.4820    0.2368 C   0  0  0  0  0  0  0  0  0  0  0  0
    3.8005    1.5181    0.6782 O   0  0  0  0  0  0  0  0  0  0  0  0
    3.9845   -0.6094   -0.1541 N   0  0  0  0  0  0  0  0  0  0  0  0
    5.3891   -0.7505   -0.1266 C   0  0  0  0  0  0  0  0  0  0  0  0
    6.0027   -1.7911   -0.8114 C   0  0  0  0  0  0  0  0  0  0  0  0
    7.3577   -1.9528   -0.7806 C   0  0  0  0  0  0  0  0  0  0  0  0
    7.9347   -2.9741   -1.4562 F   0  0  0  0  0  0  0  0  0  0  0  0
    8.1458   -1.0854   -0.0679 C   0  0  0  0  0  0  0  0  0  0  0  0
    7.5632   -0.0518    0.6157 C   0  0  0  0  0  0  0  0  0  0  0  0
    8.3239    0.8189    1.3276 F   0  0  0  0  0  0  0  0  0  0  0  0
    6.1844    0.1088    0.5815 C   0  0  0  0  0  0  0  0  0  0  0  0
    0.9674   -0.5862   -0.2906 C   0  0  0  0  0  0  0  0  0  0  0  0
   -0.2871   -0.6328    0.5984 C   0  0  0  0  0  0  0  0  0  0  0  0
   -2.4476    0.4183   -0.2945 C   0  0  1  0  0  0  0  0  0  0  0  0
   -2.9830   -0.9527   -0.4539 C   0  0  0  0  0  0  0  0  0  0  0  0
   -3.3163   -1.4242   -1.7119 C   0  0  0  0  0  0  0  0  0  0  0  0
   -3.8325   -2.6783   -1.9403 C   0  0  0  0  0  0  0  0  0  0  0  0
   -4.0300   -3.5116   -0.8702 C   0  0  0  0  0  0  0  0  0  0  0  0
   -4.6832   -5.1197   -1.0962 Cl  0  0  0  0  0  0  0  0  0  0  0  0
   -3.7163   -3.0913    0.3924 C   0  0  0  0  0  0  0  0  0  0  0  0
   -3.2026   -1.8331    0.5866 C   0  0  0  0  0  0  0  0  0  0  0  0
   -4.4753    3.8481   -0.2681 H   0  0  0  0  0  0  0  0  0  0  0  0
   -2.9637    4.0119    0.6393 H   0  0  0  0  0  0  0  0  0  0  0  0
   -3.0373    3.0592   -0.9366 H   0  0  0  0  0  0  0  0  0  0  0  0
   -4.3651    2.2981    1.7567 H   0  0  0  0  0  0  0  0  0  0  0  0
   -6.0209    2.1972   -0.0233 H   0  0  0  0  0  0  0  0  0  0  0  0
   -4.8335    1.4216   -1.0915 H   0  0  0  0  0  0  0  0  0  0  0  0
   -5.4136    0.4827    0.2950 H   0  0  0  0  0  0  0  0  0  0  0  0
   -1.4942    2.1557    1.8742 H   0  0  0  0  0  0  0  0  0  0  0  0
   -1.7076    0.4143    2.4027 H   0  0  0  0  0  0  0  0  0  0  0  0
   -0.0460    1.5961   -1.3102 H   0  0  0  0  0  0  0  0  0  0  0  0
   -0.7104    2.6843   -0.0750 H   0  0  0  0  0  0  0  0  0  0  0  0
    0.7503    1.5558    1.6544 H   0  0  0  0  0  0  0  0  0  0  0  0
    1.6328    2.6131    0.4117 H   0  0  0  0  0  0  0  0  0  0  0  0
    3.4302   -1.4527   -0.5255 H   0  0  0  0  0  0  0  0  0  0  0  0
    5.3528   -2.4694   -1.3735 H   0  0  0  0  0  0  0  0  0  0  0  0
    9.2225   -1.1968   -0.0316 H   0  0  0  0  0  0  0  0  0  0  0  0
    5.8140    0.9471    1.1588 H   0  0  0  0  0  0  0  0  0  0  0  0
    1.4761   -1.5674   -0.2733 H   0  0  0  0  0  0  0  0  0  0  0  0
    0.5797   -0.3344   -1.3046 H   0  0  0  0  0  0  0  0  0  0  0  0
    0.0188   -0.7039    1.6703 H   0  0  0  0  0  0  0  0  0  0  0  0
   -0.8248   -1.5367    0.2928 H   0  0  0  0  0  0  0  0  0  0  0  0
   -2.6420    1.0778   -1.1784 H   0  0  0  0  0  0  0  0  0  0  0  0
   -3.1483   -0.7383   -2.5495 H   0  0  0  0  0  0  0  0  0  0  0  0
   -4.0711   -2.9792   -2.9560 H   0  0  0  0  0  0  0  0  0  0  0  0
   -3.8662   -3.7323    1.2306 H   0  0  0  0  0  0  0  0  0  0  0  0
   -2.9411   -1.4672    1.5880 H   0  0  0  0  0  0  0  0  0  0  0  0
  1  2  1  0
  2  3  1  0
  2  4  1  0
  4  5  1  0
  5  6  1  0
  6  7  1  0
  7  8  1  0
  8  9  1  0
  9 10  1  0
 10 11  2  0
 10 12  1  0
 12 13  1  0
 13 14  2  0
 14 15  1  0
 15 16  1  0
 15 17  2  0
 17 18  1  0
 18 19  1  0
 18 20  2  0
  9 21  1  0
 21 22  1  0
  6 23  1  0
 23 24  1  0
 24 25  2  0
 25 26  1  0
 26 27  2  0
 27 28  1  0
 27 29  1  0
 29 30  2  0
 23  4  1  0
 30 24  1  0
 22  6  1  0
 20 13  1  0
  1 31  1  0
  1 32  1  0
  1 33  1  0
  2 34  1  0
  3 35  1  0
  3 36  1  0
  3 37  1  0
  5 38  1  0
  5 39  1  0
  7 40  1  0
  7 41  1  0
  8 42  1  0
  8 43  1  0
 12 44  1  0
 14 45  1  0
 17 46  1  0
 20 47  1  0
 21 48  1  0
 21 49  1  0
 22 50  1  0
 22 51  1  0
 23 52  1  6
 25 53  1  0
 26 54  1  0
 29 55  1  0
 30 56  1  0
M  END
>  <fragInfo>  (1) 
4 5 6 7 8 9 21 22 23 38 39 40 41 42 43 48 49 50 51 52
1 31 32 33
2 34
3 35 36 37
10 11 12 44
13 14 15 16 17 18 19 20 45 46 47
24 25 26 27 28 29 30 53 54 55 56


>  <torsionInfo>  (1) 
2 4 2 0
9 10 0 4
23 24 0 6
1 2 1 2
2 3 2 3
12 13 4 5


>  <atomInfo>  (1) 
1  -0.0497841C 
2  0.00451953C 
3  -0.0497841C 
4  -0.2927031NA
5  0.00667655C 
6  0.00616402C 
7  -0.0265485C 
8  0.02288250C 
9  -0.3244906N 
10 0.32134179C 
11 -0.2482699OA
12 -0.3076294N 
13 0.04820000A 
14 -0.0023614A 
15 0.12769352A 
16 -0.2068170F 
17 0.00971451A 
18 0.12769352A 
19 -0.2068170F 
20 -0.0023614A 
21 0.02288250C 
22 -0.0265485C 
23 0.04204053C 
24 -0.0300817A 
25 -0.0559520A 
26 -0.0431945A 
27 0.04057034A 
28 -0.0843441Cl
29 -0.0431945A 
30 -0.0559520A 
31 0.02462194H 
32 0.02462194H 
33 0.02462194H 
34 0.04616122H 
35 0.02462194H 
36 0.02462194H 
37 0.02462194H 
38 0.04374699H 
39 0.04374699H 
40 0.02915953H 
41 0.02915953H 
42 0.04946914H 
43 0.04946914H 
44 0.17137277HD
45 0.06758253H 
46 0.06847673H 
47 0.06758253H 
48 0.04946914H 
49 0.04946914H 
50 0.02915953H 
51 0.02915953H 
52 0.05248812H 
53 0.06267426H 
54 0.06385130H 
55 0.06385130H 
56 0.06267426H 


$$$$
