
     RDKit          3D

 68 71  0  0  0  0  0  0  0  0999 V2000
   -5.9500    2.4411    2.0757 C   0  0  0  0  0  0  0  0  0  0  0  0
   -5.2488    1.1236    1.8030 C   0  0  0  0  0  0  0  0  0  0  0  0
   -5.2541    0.9111    0.3100 C   0  0  2  0  0  0  0  0  0  0  0  0
   -6.7104    0.8514   -0.0970 C   0  0  0  0  0  0  0  0  0  0  0  0
   -4.5483   -0.3071   -0.1646 C   0  0  2  0  0  0  0  0  0  0  0  0
   -3.1430   -0.3878    0.0806 N   0  0  0  0  0  0  0  0  0  0  0  0
   -2.2393    0.6127    0.4640 C   0  0  0  0  0  0  0  0  0  0  0  0
   -2.6631    1.7933    0.6139 O   0  0  0  0  0  0  0  0  0  0  0  0
   -0.8442    0.3190    0.6884 N   0  0  0  0  0  0  0  0  0  0  0  0
   -0.3791   -1.0120    0.5204 C   0  0  0  0  0  0  0  0  0  0  0  0
    0.9927   -1.2393    1.1374 C   0  0  0  0  0  0  0  0  0  0  0  0
    1.9339   -0.2563    0.5858 C   0  0  0  0  0  0  0  0  0  0  0  0
    1.4372    1.1659    0.5332 C   0  0  0  0  0  0  0  0  0  0  0  0
    0.0526    1.3593    1.0724 C   0  0  0  0  0  0  0  0  0  0  0  0
    2.5026   -0.6205   -0.8023 C   0  0  0  0  0  0  0  0  0  0  0  0
    3.6095    0.2289   -0.4103 N   0  0  0  0  0  0  0  0  0  0  0  0
    4.5201    1.1573   -0.9466 C   0  0  0  0  0  0  0  0  0  0  0  0
    5.4520    1.7653   -0.1444 C   0  0  0  0  0  0  0  0  0  0  0  0
    6.3774    2.6843   -0.5929 C   0  0  0  0  0  0  0  0  0  0  0  0
    6.3699    3.0167   -1.9310 C   0  0  0  0  0  0  0  0  0  0  0  0
    5.4315    2.4099   -2.7602 C   0  0  0  0  0  0  0  0  0  0  0  0
    5.4238    2.7404   -4.0916 F   0  0  0  0  0  0  0  0  0  0  0  0
    4.5244    1.4997   -2.2837 C   0  0  0  0  0  0  0  0  0  0  0  0
    3.3951   -0.3199    0.9530 C   0  0  2  0  0  0  0  0  0  0  0  0
    4.0173   -1.6619    0.9887 C   0  0  0  0  0  0  0  0  0  0  0  0
    5.1116   -1.9157    0.1548 C   0  0  0  0  0  0  0  0  0  0  0  0
    5.7939   -3.1018    0.1090 C   0  0  0  0  0  0  0  0  0  0  0  0
    5.3769   -4.1192    0.9405 C   0  0  0  0  0  0  0  0  0  0  0  0
    6.2353   -5.6311    0.8911 Cl  0  0  0  0  0  0  0  0  0  0  0  0
    4.2968   -3.8810    1.7698 C   0  0  0  0  0  0  0  0  0  0  0  0
    3.6180   -2.6854    1.8088 C   0  0  0  0  0  0  0  0  0  0  0  0
   -4.9439   -0.7054   -1.5051 C   0  0  0  0  0  0  0  0  0  0  0  0
   -4.0451   -1.0639   -2.3663 O   0  0  0  0  0  0  0  0  0  0  0  0
   -6.2303   -0.7557   -2.0098 O   0  0  0  0  0  0  0  0  0  0  0  0
   -6.5188   -1.1593   -3.3330 C   0  0  0  0  0  0  0  0  0  0  0  0
   -6.0276    3.0523    1.1294 H   0  0  0  0  0  0  0  0  0  0  0  0
   -6.9493    2.3163    2.5035 H   0  0  0  0  0  0  0  0  0  0  0  0
   -5.3292    3.0725    2.7576 H   0  0  0  0  0  0  0  0  0  0  0  0
   -5.9835    0.3281    2.2071 H   0  0  0  0  0  0  0  0  0  0  0  0
   -4.3296    1.0075    2.3378 H   0  0  0  0  0  0  0  0  0  0  0  0
   -4.8229    1.8516   -0.1562 H   0  0  0  0  0  0  0  0  0  0  0  0
   -6.9095    1.2274   -1.1119 H   0  0  0  0  0  0  0  0  0  0  0  0
   -7.3361    1.4636    0.6302 H   0  0  0  0  0  0  0  0  0  0  0  0
   -7.1506   -0.1619   -0.0092 H   0  0  0  0  0  0  0  0  0  0  0  0
   -4.9807   -1.1093    0.5709 H   0  0  0  0  0  0  0  0  0  0  0  0
   -2.6946   -1.3596   -0.0443 H   0  0  0  0  0  0  0  0  0  0  0  0
   -0.3860   -1.3430   -0.5183 H   0  0  0  0  0  0  0  0  0  0  0  0
   -1.0631   -1.6840    1.1186 H   0  0  0  0  0  0  0  0  0  0  0  0
    0.8980   -1.2041    2.2209 H   0  0  0  0  0  0  0  0  0  0  0  0
    1.2805   -2.2614    0.7492 H   0  0  0  0  0  0  0  0  0  0  0  0
    2.1088    1.8487    1.1323 H   0  0  0  0  0  0  0  0  0  0  0  0
    1.4528    1.5834   -0.4935 H   0  0  0  0  0  0  0  0  0  0  0  0
   -0.3020    2.3630    0.7632 H   0  0  0  0  0  0  0  0  0  0  0  0
    0.1335    1.3510    2.1921 H   0  0  0  0  0  0  0  0  0  0  0  0
    1.8605   -0.2518   -1.5975 H   0  0  0  0  0  0  0  0  0  0  0  0
    2.7222   -1.7050   -0.7884 H   0  0  0  0  0  0  0  0  0  0  0  0
    5.4730    1.5124    0.9262 H   0  0  0  0  0  0  0  0  0  0  0  0
    7.0829    3.1223    0.1014 H   0  0  0  0  0  0  0  0  0  0  0  0
    7.0841    3.7384   -2.3265 H   0  0  0  0  0  0  0  0  0  0  0  0
    3.7833    1.0168   -2.9233 H   0  0  0  0  0  0  0  0  0  0  0  0
    3.7137    0.3786    1.7446 H   0  0  0  0  0  0  0  0  0  0  0  0
    5.4436   -1.1069   -0.5073 H   0  0  0  0  0  0  0  0  0  0  0  0
    6.6381   -3.2189   -0.5706 H   0  0  0  0  0  0  0  0  0  0  0  0
    4.0059   -4.7152    2.4072 H   0  0  0  0  0  0  0  0  0  0  0  0
    2.7903   -2.5554    2.4938 H   0  0  0  0  0  0  0  0  0  0  0  0
   -6.1782   -2.1982   -3.5186 H   0  0  0  0  0  0  0  0  0  0  0  0
   -7.6450   -1.1748   -3.4170 H   0  0  0  0  0  0  0  0  0  0  0  0
   -6.1374   -0.4408   -4.0647 H   0  0  0  0  0  0  0  0  0  0  0  0
  1  2  1  0
  2  3  1  0
  3  4  1  0
  3  5  1  0
  5  6  1  0
  6  7  1  0
  7  8  2  0
  7  9  1  0
  9 10  1  0
 10 11  1  0
 11 12  1  0
 12 13  1  0
 13 14  1  0
 12 15  1  0
 15 16  1  0
 16 17  1  0
 17 18  2  0
 18 19  1  0
 19 20  2  0
 20 21  1  0
 21 22  1  0
 21 23  2  0
 16 24  1  0
 24 25  1  0
 25 26  2  0
 26 27  1  0
 27 28  2  0
 28 29  1  0
 28 30  1  0
 30 31  2  0
  5 32  1  0
 32 33  2  0
 32 34  1  0
 34 35  1  0
 14  9  1  0
 23 17  1  0
 31 25  1  0
 24 12  1  0
  1 36  1  0
  1 37  1  0
  1 38  1  0
  2 39  1  0
  2 40  1  0
  3 41  1  6
  4 42  1  0
  4 43  1  0
  4 44  1  0
  5 45  1  1
  6 46  1  0
 10 47  1  0
 10 48  1  0
 11 49  1  0
 11 50  1  0
 13 51  1  0
 13 52  1  0
 14 53  1  0
 14 54  1  0
 15 55  1  0
 15 56  1  0
 18 57  1  0
 19 58  1  0
 20 59  1  0
 23 60  1  0
 24 61  1  1
 26 62  1  0
 27 63  1  0
 30 64  1  0
 31 65  1  0
 35 66  1  0
 35 67  1  0
 35 68  1  0
M  END
>  <fragInfo>  (1) 
9 10 11 12 13 14 15 16 24 47 48 49 50 51 52 53 54 55 56 61
1 36 37 38
2 39 40
3 41
4 42 43 44
5 45
6 7 8 46
17 18 19 20 21 22 23 57 58 59 60
25 26 27 28 29 30 31 62 63 64 65
32 33
34
35 66 67 68


>  <torsionInfo>  (1) 
7 9 6 0
16 17 0 7
24 25 0 8
1 2 1 2
2 3 2 3
3 4 3 4
3 5 3 5
5 6 5 6
5 32 5 9
32 34 9 10
34 35 10 11


>  <atomInfo>  (1) 
1  -0.0650356C 
2  -0.0510302C 
3  -0.0131967C 
4  -0.0599687C 
5  0.13075216C 
6  -0.3241245N 
7  0.31761779C 
8  -0.2486474OA
9  -0.3247685N 
10 0.02290797C 
11 -0.0256016C 
12 0.01581470C 
13 -0.0256016C 
14 0.02290797C 
15 0.02652515C 
16 -0.3631147N 
17 0.04006340A 
18 -0.0385290A 
19 -0.0572982A 
20 -0.0261679A 
21 0.12477183A 
22 -0.2069299F 
23 -0.0028423A 
24 0.06167043C 
25 -0.0248225A 
26 -0.0554628A 
27 -0.0431761A 
28 0.04057096A 
29 -0.0843441Cl
30 -0.0431761A 
31 -0.0554628A 
32 0.32819461C 
33 -0.2498040OA
34 -0.4674771OA
35 0.08066878C 
36 0.02304679H 
37 0.02304679H 
38 0.02304679H 
39 0.02673678H 
40 0.02673678H 
41 0.03269372H 
42 0.02341031H 
43 0.02341031H 
44 0.02341031H 
45 0.06546949H 
46 0.16581578HD
47 0.04946959H 
48 0.04946959H 
49 0.02919719H 
50 0.02919719H 
51 0.02919719H 
52 0.02919719H 
53 0.04946959H 
54 0.04946959H 
55 0.04998064H 
56 0.04998064H 
57 0.06446705H 
58 0.06245032H 
59 0.06536064H 
60 0.06757169H 
61 0.05879300H 
62 0.06269300H 
63 0.06385161H 
64 0.06385161H 
65 0.06269300H 
66 0.06697772H 
67 0.06697772H 
68 0.06697772H 


$$$$
