
     RDKit          3D

 54 58  0  0  0  0  0  0  0  0999 V2000
    3.4093    1.2142   -1.7256 O   0  0  0  0  0  0  0  0  0  0  0  0
    2.9172    0.4100   -0.9056 C   0  0  0  0  0  0  0  0  0  0  0  0
    3.7749   -0.2823   -0.0246 N   0  0  0  0  0  0  0  0  0  0  0  0
    5.1853   -0.1826    0.0543 C   0  0  0  0  0  0  0  0  0  0  0  0
    5.9459    0.5523   -0.7883 C   0  0  0  0  0  0  0  0  0  0  0  0
    7.3324    0.6033   -0.6386 C   0  0  0  0  0  0  0  0  0  0  0  0
    8.0802    1.3382   -1.4832 F   0  0  0  0  0  0  0  0  0  0  0  0
    7.9558   -0.0860    0.3599 C   0  0  0  0  0  0  0  0  0  0  0  0
    7.1984   -0.8371    1.2241 C   0  0  0  0  0  0  0  0  0  0  0  0
    7.7597   -1.5571    2.2531 F   0  0  0  0  0  0  0  0  0  0  0  0
    5.8428   -0.8811    1.0702 C   0  0  0  0  0  0  0  0  0  0  0  0
    1.5040    0.2307   -0.9008 N   0  0  0  0  0  0  0  0  0  0  0  0
    0.9479   -0.6970    0.0411 C   0  0  0  0  0  0  0  0  0  0  0  0
   -0.4765   -0.9951   -0.4901 C   0  0  0  0  0  0  0  0  0  0  0  0
   -1.2163    0.2997   -0.3941 C   0  0  0  0  0  0  0  0  0  0  0  0
   -0.6528    1.3222   -1.3542 C   0  0  0  0  0  0  0  0  0  0  0  0
    0.7239    0.9929   -1.8396 C   0  0  0  0  0  0  0  0  0  0  0  0
   -1.2978    0.8622    1.0179 C   0  0  0  0  0  0  0  0  0  0  0  0
   -2.6999    1.0069    0.8183 N   0  0  0  0  0  0  0  0  0  0  0  0
   -3.2280    2.3233    0.7454 C   0  0  0  0  0  0  0  0  0  0  0  0
   -4.7128    2.3979    0.4509 C   0  0  0  0  0  0  0  0  0  0  0  0
   -3.6820    3.0050   -0.4529 C   0  0  0  0  0  0  0  0  0  0  0  0
   -2.6937    0.2097   -0.3823 C   0  0  2  0  0  0  0  0  0  0  0  0
   -3.3484   -1.0805   -0.1330 C   0  0  0  0  0  0  0  0  0  0  0  0
   -4.2922   -1.1880    0.9005 C   0  0  0  0  0  0  0  0  0  0  0  0
   -4.9791   -2.3132    1.2051 C   0  0  0  0  0  0  0  0  0  0  0  0
   -4.7608   -3.4542    0.4677 C   0  0  0  0  0  0  0  0  0  0  0  0
   -5.6603   -4.8978    0.8798 Cl  0  0  0  0  0  0  0  0  0  0  0  0
   -3.8490   -3.4117   -0.5575 C   0  0  0  0  0  0  0  0  0  0  0  0
   -3.1501   -2.2375   -0.8555 C   0  0  0  0  0  0  0  0  0  0  0  0
    3.2537   -0.9468    0.6403 H   0  0  0  0  0  0  0  0  0  0  0  0
    5.5607    1.1237   -1.6020 H   0  0  0  0  0  0  0  0  0  0  0  0
    9.0462   -0.0493    0.4823 H   0  0  0  0  0  0  0  0  0  0  0  0
    5.2474   -1.4608    1.7356 H   0  0  0  0  0  0  0  0  0  0  0  0
    1.4528   -1.6840    0.0671 H   0  0  0  0  0  0  0  0  0  0  0  0
    0.8251   -0.3078    1.0571 H   0  0  0  0  0  0  0  0  0  0  0  0
   -0.3442   -1.2244   -1.5886 H   0  0  0  0  0  0  0  0  0  0  0  0
   -0.9350   -1.7961    0.0828 H   0  0  0  0  0  0  0  0  0  0  0  0
   -0.7188    2.3206   -0.8780 H   0  0  0  0  0  0  0  0  0  0  0  0
   -1.3348    1.3556   -2.2325 H   0  0  0  0  0  0  0  0  0  0  0  0
    1.2483    1.9445   -2.0607 H   0  0  0  0  0  0  0  0  0  0  0  0
    0.7066    0.4218   -2.7939 H   0  0  0  0  0  0  0  0  0  0  0  0
   -1.0471    0.0310    1.7410 H   0  0  0  0  0  0  0  0  0  0  0  0
   -0.6990    1.7566    1.2074 H   0  0  0  0  0  0  0  0  0  0  0  0
   -2.9007    2.9646    1.6193 H   0  0  0  0  0  0  0  0  0  0  0  0
   -5.3756    3.0166    1.0530 H   0  0  0  0  0  0  0  0  0  0  0  0
   -5.2111    1.5005    0.0193 H   0  0  0  0  0  0  0  0  0  0  0  0
   -3.5698    2.6494   -1.4831 H   0  0  0  0  0  0  0  0  0  0  0  0
   -3.6932    4.1352   -0.4159 H   0  0  0  0  0  0  0  0  0  0  0  0
   -3.1291    0.6741   -1.2859 H   0  0  0  0  0  0  0  0  0  0  0  0
   -4.4620   -0.2945    1.4780 H   0  0  0  0  0  0  0  0  0  0  0  0
   -5.6886   -2.2835    2.0294 H   0  0  0  0  0  0  0  0  0  0  0  0
   -3.6638   -4.2988   -1.1484 H   0  0  0  0  0  0  0  0  0  0  0  0
   -2.4458   -2.2157   -1.6787 H   0  0  0  0  0  0  0  0  0  0  0  0
  1  2  2  0
  2  3  1  0
  3  4  1  0
  4  5  2  0
  5  6  1  0
  6  7  1  0
  6  8  2  0
  8  9  1  0
  9 10  1  0
  9 11  2  0
  2 12  1  0
 12 13  1  0
 13 14  1  0
 14 15  1  0
 15 16  1  0
 16 17  1  0
 15 18  1  0
 18 19  1  0
 19 20  1  0
 20 21  1  0
 21 22  1  0
 19 23  1  0
 23 24  1  0
 24 25  2  0
 25 26  1  0
 26 27  2  0
 27 28  1  0
 27 29  1  0
 29 30  2  0
 11  4  1  0
 17 12  1  0
 22 20  1  0
 30 24  1  0
 23 15  1  0
  3 31  1  0
  5 32  1  0
  8 33  1  0
 11 34  1  0
 13 35  1  0
 13 36  1  0
 14 37  1  0
 14 38  1  0
 16 39  1  0
 16 40  1  0
 17 41  1  0
 17 42  1  0
 18 43  1  0
 18 44  1  0
 20 45  1  0
 21 46  1  0
 21 47  1  0
 22 48  1  0
 22 49  1  0
 23 50  1  6
 25 51  1  0
 26 52  1  0
 29 53  1  0
 30 54  1  0
M  END
>  <fragInfo>  (1) 
12 13 14 15 16 17 18 19 23 35 36 37 38 39 40 41 42 43 44 50
1 2 3 31
4 5 6 7 8 9 10 11 32 33 34
20 21 22 45 46 47 48 49
24 25 26 27 28 29 30 51 52 53 54


>  <torsionInfo>  (1) 
2 12 1 0
19 20 0 3
23 24 0 4
3 4 1 2


>  <atomInfo>  (1) 
1  -0.2482699OA
2  0.32134179C 
3  -0.3076294N 
4  0.04820000A 
5  -0.0023614A 
6  0.12769352A 
7  -0.2068170F 
8  0.00971451A 
9  0.12769352A 
10 -0.2068170F 
11 -0.0023614A 
12 -0.3244906N 
13 0.02288250C 
14 -0.0265485C 
15 0.00616484C 
16 -0.0265485C 
17 0.02288250C 
18 0.00669985C 
19 -0.2921515NA
20 0.01030215C 
21 -0.0360283C 
22 -0.0360283C 
23 0.04206379C 
24 -0.0300813A 
25 -0.0559520A 
26 -0.0431945A 
27 0.04057034A 
28 -0.0843441Cl
29 -0.0431945A 
30 -0.0559520A 
31 0.17137277HD
32 0.06758253H 
33 0.06847673H 
34 0.06758253H 
35 0.04946914H 
36 0.04946914H 
37 0.02915953H 
38 0.02915953H 
39 0.02915953H 
40 0.02915953H 
41 0.04946914H 
42 0.04946914H 
43 0.04374739H 
44 0.04374739H 
45 0.04674155H 
46 0.02831415H 
47 0.02831415H 
48 0.02831415H 
49 0.02831415H 
50 0.05248853H 
51 0.06267426H 
52 0.06385130H 
53 0.06385130H 
54 0.06267426H 


$$$$
