
     RDKit          3D

 75 78  0  0  0  0  0  0  0  0999 V2000
   -4.4325    2.4332    3.4579 C   0  0  0  0  0  0  0  0  0  0  0  0
   -3.5059    1.7305    2.4917 C   0  0  0  0  0  0  0  0  0  0  0  0
   -3.9984    1.2095    1.3878 C   0  0  0  0  0  0  0  0  0  0  0  0
   -5.4421    1.3424    1.1569 C   0  0  0  0  0  0  0  0  0  0  0  0
   -6.2117    1.9150    1.9403 O   0  0  0  0  0  0  0  0  0  0  0  0
   -5.9844    0.8068    0.0125 O   0  0  0  0  0  0  0  0  0  0  0  0
   -7.3684    0.9134   -0.2460 C   0  0  0  0  0  0  0  0  0  0  0  0
   -7.5805    1.5233   -1.5932 C   0  0  0  0  0  0  0  0  0  0  0  0
   -7.9446   -0.4959   -0.2632 C   0  0  0  0  0  0  0  0  0  0  0  0
   -3.1620    0.5198    0.3942 C   0  0  2  0  0  0  0  0  0  0  0  0
   -3.7322   -0.8225    0.0416 C   0  0  0  0  0  0  0  0  0  0  0  0
   -3.6160   -1.8736    0.9475 C   0  0  0  0  0  0  0  0  0  0  0  0
   -4.0976   -3.1395    0.6877 C   0  0  0  0  0  0  0  0  0  0  0  0
   -4.7283   -3.3688   -0.5409 C   0  0  0  0  0  0  0  0  0  0  0  0
   -4.8575   -2.3479   -1.4570 C   0  0  0  0  0  0  0  0  0  0  0  0
   -5.6554   -2.6973   -2.9743 Cl  0  0  0  0  0  0  0  0  0  0  0  0
   -4.3588   -1.0990   -1.1498 C   0  0  0  0  0  0  0  0  0  0  0  0
   -1.7705    0.4069    0.7236 N   0  0  0  0  0  0  0  0  0  0  0  0
   -0.9081   -0.3103   -0.2075 C   0  0  0  0  0  0  0  0  0  0  0  0
   -0.3178    0.5845   -1.2384 C   0  0  0  0  0  0  0  0  0  0  0  0
    0.5514   -0.1830   -2.1812 C   0  0  0  0  0  0  0  0  0  0  0  0
    1.6879   -0.8504   -1.4981 N   0  0  0  0  0  0  0  0  0  0  0  0
    1.4760   -2.1960   -1.0493 C   0  0  0  0  0  0  0  0  0  0  0  0
    2.8526   -0.0958   -1.3706 C   0  0  0  0  0  0  0  0  0  0  0  0
    2.7883    1.1092   -1.8561 O   0  0  0  0  0  0  0  0  0  0  0  0
    4.1304   -0.4333   -0.7829 C   0  0  0  0  0  0  0  0  0  0  0  0
    5.1412    0.5469   -0.7284 C   0  0  0  0  0  0  0  0  0  0  0  0
    6.3782    0.3167   -0.2040 C   0  0  0  0  0  0  0  0  0  0  0  0
    6.7136   -0.9138    0.3121 C   0  0  0  0  0  0  0  0  0  0  0  0
    7.9721   -1.1194    0.8367 O   0  0  0  0  0  0  0  0  0  0  0  0
    8.8874   -0.0807    0.8409 C   0  0  0  0  0  0  0  0  0  0  0  0
    9.7176    0.0622   -0.2542 C   0  0  0  0  0  0  0  0  0  0  0  0
   10.6307    1.0965   -0.2525 C   0  0  0  0  0  0  0  0  0  0  0  0
   10.7073    1.9648    0.8220 C   0  0  0  0  0  0  0  0  0  0  0  0
    9.8800    1.8351    1.9307 C   0  0  0  0  0  0  0  0  0  0  0  0
    8.9760    0.8013    1.9156 C   0  0  0  0  0  0  0  0  0  0  0  0
    5.7451   -1.8733    0.2662 C   0  0  0  0  0  0  0  0  0  0  0  0
    4.4727   -1.6608   -0.2657 C   0  0  0  0  0  0  0  0  0  0  0  0
   -1.2740    0.9769    1.9123 C   0  0  0  0  0  0  0  0  0  0  0  0
   -0.0549    0.9105    2.2118 O   0  0  0  0  0  0  0  0  0  0  0  0
   -2.1280    1.6535    2.8283 N   0  0  0  0  0  0  0  0  0  0  0  0
   -5.1407    1.7551    3.9375 H   0  0  0  0  0  0  0  0  0  0  0  0
   -3.7661    2.7858    4.3032 H   0  0  0  0  0  0  0  0  0  0  0  0
   -4.8501    3.3585    3.0445 H   0  0  0  0  0  0  0  0  0  0  0  0
   -7.8720    1.4571    0.5727 H   0  0  0  0  0  0  0  0  0  0  0  0
   -7.7926    0.7526   -2.3682 H   0  0  0  0  0  0  0  0  0  0  0  0
   -8.4342    2.2395   -1.5627 H   0  0  0  0  0  0  0  0  0  0  0  0
   -6.6733    2.0995   -1.8939 H   0  0  0  0  0  0  0  0  0  0  0  0
   -7.7425   -0.9979   -1.2373 H   0  0  0  0  0  0  0  0  0  0  0  0
   -7.4852   -1.1295    0.5278 H   0  0  0  0  0  0  0  0  0  0  0  0
   -9.0440   -0.4945   -0.1025 H   0  0  0  0  0  0  0  0  0  0  0  0
   -3.1982    1.1062   -0.5729 H   0  0  0  0  0  0  0  0  0  0  0  0
   -3.1230   -1.6836    1.9013 H   0  0  0  0  0  0  0  0  0  0  0  0
   -4.0125   -3.9614    1.3835 H   0  0  0  0  0  0  0  0  0  0  0  0
   -5.0974   -4.3663   -0.7224 H   0  0  0  0  0  0  0  0  0  0  0  0
   -4.4549   -0.3135   -1.8807 H   0  0  0  0  0  0  0  0  0  0  0  0
   -0.0744   -0.7519    0.3743 H   0  0  0  0  0  0  0  0  0  0  0  0
   -1.5027   -1.1372   -0.6260 H   0  0  0  0  0  0  0  0  0  0  0  0
    0.2271    1.3995   -0.7123 H   0  0  0  0  0  0  0  0  0  0  0  0
   -1.0779    1.1078   -1.8588 H   0  0  0  0  0  0  0  0  0  0  0  0
    0.9416    0.4545   -3.0056 H   0  0  0  0  0  0  0  0  0  0  0  0
   -0.0381   -0.9927   -2.6426 H   0  0  0  0  0  0  0  0  0  0  0  0
    0.3815   -2.4555   -1.2503 H   0  0  0  0  0  0  0  0  0  0  0  0
    1.5797   -2.3770    0.0212 H   0  0  0  0  0  0  0  0  0  0  0  0
    2.0393   -2.9634   -1.6342 H   0  0  0  0  0  0  0  0  0  0  0  0
    4.8910    1.5386   -1.1359 H   0  0  0  0  0  0  0  0  0  0  0  0
    7.1090    1.1371   -0.2004 H   0  0  0  0  0  0  0  0  0  0  0  0
    9.6568   -0.6163   -1.0925 H   0  0  0  0  0  0  0  0  0  0  0  0
   11.3171    1.2626   -1.0918 H   0  0  0  0  0  0  0  0  0  0  0  0
   11.4129    2.7844    0.8515 H   0  0  0  0  0  0  0  0  0  0  0  0
    9.9376    2.5109    2.7705 H   0  0  0  0  0  0  0  0  0  0  0  0
    8.2967    0.6372    2.7467 H   0  0  0  0  0  0  0  0  0  0  0  0
    6.0017   -2.8595    0.6753 H   0  0  0  0  0  0  0  0  0  0  0  0
    3.7725   -2.4624   -0.2729 H   0  0  0  0  0  0  0  0  0  0  0  0
   -1.7636    2.0778    3.7124 H   0  0  0  0  0  0  0  0  0  0  0  0
  1  2  1  0
  2  3  2  0
  3  4  1  0
  4  5  2  0
  4  6  1  0
  6  7  1  0
  7  8  1  0
  7  9  1  0
  3 10  1  0
 10 11  1  0
 11 12  2  0
 12 13  1  0
 13 14  2  0
 14 15  1  0
 15 16  1  0
 15 17  2  0
 10 18  1  0
 18 19  1  0
 19 20  1  0
 20 21  1  0
 21 22  1  0
 22 23  1  0
 22 24  1  0
 24 25  2  0
 24 26  1  0
 26 27  2  0
 27 28  1  0
 28 29  2  0
 29 30  1  0
 30 31  1  0
 31 32  2  0
 32 33  1  0
 33 34  2  0
 34 35  1  0
 35 36  2  0
 29 37  1  0
 37 38  2  0
 18 39  1  0
 39 40  2  0
 39 41  1  0
 41  2  1  0
 17 11  1  0
 38 26  1  0
 36 31  1  0
  1 42  1  0
  1 43  1  0
  1 44  1  0
  7 45  1  0
  8 46  1  0
  8 47  1  0
  8 48  1  0
  9 49  1  0
  9 50  1  0
  9 51  1  0
 10 52  1  6
 12 53  1  0
 13 54  1  0
 14 55  1  0
 17 56  1  0
 19 57  1  0
 19 58  1  0
 20 59  1  0
 20 60  1  0
 21 61  1  0
 21 62  1  0
 23 63  1  0
 23 64  1  0
 23 65  1  0
 27 66  1  0
 28 67  1  0
 32 68  1  0
 33 69  1  0
 34 70  1  0
 35 71  1  0
 36 72  1  0
 37 73  1  0
 38 74  1  0
 41 75  1  0
M  END
>  <fragInfo>  (1) 
11 12 13 14 15 16 17 53 54 55 56
1 42 43 44
2 3 10 18 39 40 41 52 75
4 5
6
7 45
8 46 47 48
9 49 50 51
19 57 58
20 59 60
21 61 62
22
23 63 64 65
24 25
26 27 28 29 37 38 66 67 73 74
30
31 32 33 34 35 36 68 69 70 71 72


>  <torsionInfo>  (1) 
10 11 2 0
1 2 1 2
3 4 2 3
18 19 2 8
4 6 3 4
6 7 4 5
7 8 5 6
7 9 5 7
19 20 8 9
20 21 9 10
21 22 10 11
22 23 11 12
22 24 11 13
24 26 13 14
29 30 14 15
30 31 15 16


>  <atomInfo>  (1) 
1  -0.0236420C 
2  0.02931013C 
3  0.08327591C 
4  0.33801011C 
5  -0.2464034OA
6  -0.4594970OA
7  0.09653486C 
8  -0.0279164C 
9  -0.0279164C 
10 0.09294520C 
11 -0.0190729A 
12 -0.0565034A 
13 -0.0604233A 
14 -0.0435054A 
15 0.04091322A 
16 -0.0843322Cl
17 -0.0378725A 
18 -0.3129810N 
19 0.02491692C 
20 -0.0175160C 
21 0.02214545C 
22 -0.3416425N 
23 0.00947352C 
24 0.25309591C 
25 -0.2690993OA
26 0.03977463A 
27 -0.0457519A 
28 -0.0185166A 
29 0.12697723A 
30 -0.4573837OA
31 0.12692775A 
32 -0.0193114A 
33 -0.0585622A 
34 -0.0619989A 
35 -0.0585622A 
36 -0.0193114A 
37 -0.0185166A 
38 -0.0457519A 
39 0.32188172C 
40 -0.2482483OA
41 -0.3112533N 
42 0.02950962H 
43 0.02950962H 
44 0.02950962H 
45 0.07378168H 
46 0.02680098H 
47 0.02680098H 
48 0.02680098H 
49 0.02680098H 
50 0.02680098H 
51 0.02680098H 
52 0.06389193H 
53 0.06265378H 
54 0.06233304H 
55 0.06384051H 
56 0.06422544H 
57 0.04955026H 
58 0.04955026H 
59 0.03029048H 
60 0.03029048H 
61 0.04944432H 
62 0.04944432H 
63 0.04572597H 
64 0.04572597H 
65 0.04572597H 
66 0.06324224H 
67 0.06623832H 
68 0.06621313H 
69 0.06240579H 
70 0.06227300H 
71 0.06240579H 
72 0.06621313H 
73 0.06623832H 
74 0.06324224H 
75 0.17102959HD


$$$$
