
     RDKit          3D

 54 59  0  0  0  0  0  0  0  0999 V2000
   -1.2908   -0.7799   -2.2822 O   0  0  0  0  0  0  0  0  0  0  0  0
   -1.4113   -0.4394   -1.1064 C   0  0  0  0  0  0  0  0  0  0  0  0
   -2.3073    0.4151   -0.3301 N   0  0  0  0  0  0  0  0  0  0  0  0
   -2.9606    1.5899   -0.7586 C   0  0  0  0  0  0  0  0  0  0  0  0
   -4.3107    1.6834   -0.9091 C   0  0  0  0  0  0  0  0  0  0  0  0
   -4.9351    2.8401   -1.3499 C   0  0  0  0  0  0  0  0  0  0  0  0
   -4.1452    3.9231   -1.6420 C   0  0  0  0  0  0  0  0  0  0  0  0
   -4.7588    5.0698   -2.0822 F   0  0  0  0  0  0  0  0  0  0  0  0
   -2.7665    3.8475   -1.4951 C   0  0  0  0  0  0  0  0  0  0  0  0
   -1.7813    5.2630   -1.8909 Cl  0  0  0  0  0  0  0  0  0  0  0  0
   -2.1669    2.7175   -1.0646 C   0  0  0  0  0  0  0  0  0  0  0  0
   -2.0999   -0.4565    0.7933 C   0  0  1  0  0  0  0  0  0  0  0  0
   -3.0361   -1.5558    0.8550 C   0  0  0  0  0  0  0  0  0  0  0  0
   -4.3652   -1.2899    1.1086 C   0  0  0  0  0  0  0  0  0  0  0  0
   -5.3444   -2.2586    1.1484 C   0  0  0  0  0  0  0  0  0  0  0  0
   -5.0055   -3.5617    0.9289 C   0  0  0  0  0  0  0  0  0  0  0  0
   -3.6569   -3.8201    0.6746 C   0  0  0  0  0  0  0  0  0  0  0  0
   -2.7419   -2.8535    0.6448 N   0  0  0  0  0  0  0  0  0  0  0  0
   -0.7370   -0.6882    0.1890 C   0  0  0  0  0  0  0  0  0  0  0  0
    0.1303    0.4980    0.5953 C   0  0  0  0  0  0  0  0  0  0  0  0
    1.2194   -0.0409    1.5438 C   0  0  0  0  0  0  0  0  0  0  0  0
    2.0305   -0.8500    0.6518 N   0  0  0  0  0  0  0  0  0  0  0  0
    3.3455   -0.4438    0.3328 C   0  0  0  0  0  0  0  0  0  0  0  0
    4.2248   -1.0675   -0.4734 N   0  0  0  0  0  0  0  0  0  0  0  0
    5.3806   -0.3902   -0.5526 C   0  0  0  0  0  0  0  0  0  0  0  0
    6.5937   -0.5306   -1.1960 C   0  0  0  0  0  0  0  0  0  0  0  0
    7.6179    0.3709   -1.0692 C   0  0  0  0  0  0  0  0  0  0  0  0
    8.8082    0.2038   -1.7149 F   0  0  0  0  0  0  0  0  0  0  0  0
    7.4686    1.4874   -0.2693 C   0  0  0  0  0  0  0  0  0  0  0  0
    8.7749    2.6573   -0.0968 Cl  0  0  0  0  0  0  0  0  0  0  0  0
    6.2724    1.6527    0.3816 C   0  0  0  0  0  0  0  0  0  0  0  0
    5.2404    0.7256    0.2427 C   0  0  0  0  0  0  0  0  0  0  0  0
    4.0004    0.6602    0.7605 N   0  0  0  0  0  0  0  0  0  0  0  0
    1.3913   -2.0270    0.1351 C   0  0  0  0  0  0  0  0  0  0  0  0
   -0.1076   -2.0103    0.3226 C   0  0  0  0  0  0  0  0  0  0  0  0
   -4.9770    0.8506   -0.7014 H   0  0  0  0  0  0  0  0  0  0  0  0
   -5.9984    2.9143   -1.4682 H   0  0  0  0  0  0  0  0  0  0  0  0
   -1.0745    2.6300   -0.9399 H   0  0  0  0  0  0  0  0  0  0  0  0
   -2.0600    0.1051    1.7702 H   0  0  0  0  0  0  0  0  0  0  0  0
   -4.7208   -0.2773    1.3134 H   0  0  0  0  0  0  0  0  0  0  0  0
   -6.3783   -2.0071    1.3491 H   0  0  0  0  0  0  0  0  0  0  0  0
   -5.7590   -4.3188    0.9551 H   0  0  0  0  0  0  0  0  0  0  0  0
   -3.4235   -4.8664    0.5044 H   0  0  0  0  0  0  0  0  0  0  0  0
   -0.3998    1.2790    1.1396 H   0  0  0  0  0  0  0  0  0  0  0  0
    0.6484    0.8849   -0.2835 H   0  0  0  0  0  0  0  0  0  0  0  0
    1.7591    0.8218    1.9254 H   0  0  0  0  0  0  0  0  0  0  0  0
    0.7769   -0.7018    2.3109 H   0  0  0  0  0  0  0  0  0  0  0  0
    6.7142   -1.4008   -1.8202 H   0  0  0  0  0  0  0  0  0  0  0  0
    6.1516    2.5232    1.0070 H   0  0  0  0  0  0  0  0  0  0  0  0
    3.6191    1.3767    1.4026 H   0  0  0  0  0  0  0  0  0  0  0  0
    1.6962   -2.2409   -0.9117 H   0  0  0  0  0  0  0  0  0  0  0  0
    1.7752   -2.8894    0.7318 H   0  0  0  0  0  0  0  0  0  0  0  0
   -0.4256   -2.5773    1.2231 H   0  0  0  0  0  0  0  0  0  0  0  0
   -0.4938   -2.6473   -0.5333 H   0  0  0  0  0  0  0  0  0  0  0  0
  1  2  2  0
  2  3  1  0
  3  4  1  0
  4  5  2  0
  5  6  1  0
  6  7  2  0
  7  8  1  0
  7  9  1  0
  9 10  1  0
  9 11  2  0
  3 12  1  0
 12 13  1  0
 13 14  2  0
 14 15  1  0
 15 16  2  0
 16 17  1  0
 17 18  2  0
 12 19  1  0
 19 20  1  0
 20 21  1  0
 21 22  1  0
 22 23  1  0
 23 24  2  0
 24 25  1  0
 25 26  2  0
 26 27  1  0
 27 28  1  0
 27 29  2  0
 29 30  1  0
 29 31  1  0
 31 32  2  0
 32 33  1  0
 22 34  1  0
 34 35  1  0
 19  2  1  0
 33 23  1  0
 11  4  1  0
 18 13  1  0
 35 19  1  0
 32 25  1  0
  5 36  1  0
  6 37  1  0
 11 38  1  0
 12 39  1  1
 14 40  1  0
 15 41  1  0
 16 42  1  0
 17 43  1  0
 20 44  1  0
 20 45  1  0
 21 46  1  0
 21 47  1  0
 26 48  1  0
 31 49  1  0
 33 50  1  0
 34 51  1  0
 34 52  1  0
 35 53  1  0
 35 54  1  0
M  END
>  <fragInfo>  (1) 
1 2 3 12 19 20 21 22 34 35 39 44 45 46 47 51 52 53 54
4 5 6 7 8 9 10 11 36 37 38
13 14 15 16 17 18 40 41 42 43
23 24 25 26 27 28 29 30 31 32 33 48 49 50


>  <torsionInfo>  (1) 
3 4 0 1
12 13 0 2
22 23 0 3


>  <atomInfo>  (1) 
1  -0.2737375OA
2  0.23602004C 
3  -0.3016361N 
4  0.04613962A 
5  -0.0352698A 
6  -0.0226871A 
7  0.14143861A 
8  -0.2053590F 
9  0.07835148A 
10 -0.0810568Cl
11 -0.0165777A 
12 0.09349707C 
13 0.06440208A 
14 -0.0383694A 
15 -0.0588457A 
16 -0.0437944A 
17 0.02716027A 
18 -0.2590516NA
19 0.07954944C 
20 -0.0183748C 
21 0.02172620C 
22 -0.3423275N 
23 0.20333512A 
24 -0.2129011NA
25 0.09353273A 
26 0.00331811A 
27 0.14359392A 
28 -0.2052743F 
29 0.07850678A 
30 -0.0810540Cl
31 -0.0145881A 
32 0.06865762A 
33 -0.3239516N 
34 0.02172620C 
35 -0.0183748C 
36 0.06458513H 
37 0.06549254H 
38 0.06616846H 
39 0.06142115H 
40 0.06427972H 
41 0.06239211H 
42 0.06389695H 
43 0.08399205H 
44 0.02965751H 
45 0.02965751H 
46 0.04942299H 
47 0.04942299H 
48 0.06780007H 
49 0.06624297H 
50 0.16968356HD
51 0.04942299H 
52 0.04942299H 
53 0.02965751H 
54 0.02965751H 


$$$$
