
     RDKit          3D

 65 68  0  0  0  0  0  0  0  0999 V2000
    6.4197   -1.9866   -0.0240 C   0  0  0  0  0  0  0  0  0  0  0  0
    5.1901   -1.2604    0.4726 C   0  0  0  0  0  0  0  0  0  0  0  0
    5.1601    0.0980   -0.2136 C   0  0  2  0  0  0  0  0  0  0  0  0
    6.4112    0.8394    0.1547 C   0  0  0  0  0  0  0  0  0  0  0  0
    3.9357    0.8896    0.1882 C   0  0  2  0  0  0  0  0  0  0  0  0
    2.7426    0.1503   -0.1902 N   0  0  0  0  0  0  0  0  0  0  0  0
    1.8101   -0.2530    0.7926 C   0  0  0  0  0  0  0  0  0  0  0  0
    2.0667    0.0565    1.9797 O   0  0  0  0  0  0  0  0  0  0  0  0
    0.6439   -0.9660    0.4917 N   0  0  0  0  0  0  0  0  0  0  0  0
   -0.2457   -1.3321    1.5931 C   0  0  0  0  0  0  0  0  0  0  0  0
   -1.5629   -0.5818    1.3388 C   0  0  0  0  0  0  0  0  0  0  0  0
   -2.1439   -1.1411    0.0953 C   0  0  0  0  0  0  0  0  0  0  0  0
   -1.2453   -1.1819   -1.0753 C   0  0  0  0  0  0  0  0  0  0  0  0
    0.2060   -1.3931   -0.8121 C   0  0  0  0  0  0  0  0  0  0  0  0
   -2.8425   -2.4724    0.4306 C   0  0  0  0  0  0  0  0  0  0  0  0
   -4.0076   -1.6295    0.7594 N   0  0  0  0  0  0  0  0  0  0  0  0
   -5.2720   -2.2781    0.5330 C   0  0  0  0  0  0  0  0  0  0  0  0
   -6.4958   -1.4870    0.8427 C   0  0  0  0  0  0  0  0  0  0  0  0
   -6.1642   -1.9516   -0.5727 C   0  0  0  0  0  0  0  0  0  0  0  0
   -3.5379   -0.7640   -0.2948 C   0  0  1  0  0  0  0  0  0  0  0  0
   -3.9394    0.6236   -0.3114 C   0  0  0  0  0  0  0  0  0  0  0  0
   -4.3312    1.2110   -1.5226 C   0  0  0  0  0  0  0  0  0  0  0  0
   -4.7270    2.5261   -1.6067 C   0  0  0  0  0  0  0  0  0  0  0  0
   -4.7263    3.2633   -0.4392 C   0  0  0  0  0  0  0  0  0  0  0  0
   -5.2278    4.9529   -0.5093 Cl  0  0  0  0  0  0  0  0  0  0  0  0
   -4.3512    2.7325    0.7701 C   0  0  0  0  0  0  0  0  0  0  0  0
   -3.9617    1.4099    0.8084 C   0  0  0  0  0  0  0  0  0  0  0  0
    3.9895    2.1801   -0.5465 C   0  0  0  0  0  0  0  0  0  0  0  0
    3.0689    2.4635   -1.3488 O   0  0  0  0  0  0  0  0  0  0  0  0
    5.0052    3.0877   -0.3906 O   0  0  0  0  0  0  0  0  0  0  0  0
    5.0955    4.3241   -1.0677 C   0  0  0  0  0  0  0  0  0  0  0  0
    6.1308   -2.9532   -0.4959 H   0  0  0  0  0  0  0  0  0  0  0  0
    6.9847   -1.3894   -0.7827 H   0  0  0  0  0  0  0  0  0  0  0  0
    7.1429   -2.1750    0.8048 H   0  0  0  0  0  0  0  0  0  0  0  0
    5.2406   -1.1510    1.5688 H   0  0  0  0  0  0  0  0  0  0  0  0
    4.2762   -1.7916    0.1372 H   0  0  0  0  0  0  0  0  0  0  0  0
    5.1343   -0.0937   -1.3143 H   0  0  0  0  0  0  0  0  0  0  0  0
    6.7773    1.3707   -0.7618 H   0  0  0  0  0  0  0  0  0  0  0  0
    7.2272    0.1625    0.5206 H   0  0  0  0  0  0  0  0  0  0  0  0
    6.2584    1.5822    0.9528 H   0  0  0  0  0  0  0  0  0  0  0  0
    3.9396    1.0409    1.2819 H   0  0  0  0  0  0  0  0  0  0  0  0
    2.5851   -0.0776   -1.1894 H   0  0  0  0  0  0  0  0  0  0  0  0
    0.1383   -1.0050    2.5697 H   0  0  0  0  0  0  0  0  0  0  0  0
   -0.4315   -2.4285    1.5409 H   0  0  0  0  0  0  0  0  0  0  0  0
   -2.1977   -0.8961    2.2199 H   0  0  0  0  0  0  0  0  0  0  0  0
   -1.3364    0.4858    1.3298 H   0  0  0  0  0  0  0  0  0  0  0  0
   -1.3500   -0.2066   -1.6281 H   0  0  0  0  0  0  0  0  0  0  0  0
   -1.6064   -1.9534   -1.7880 H   0  0  0  0  0  0  0  0  0  0  0  0
    0.7972   -0.8955   -1.6018 H   0  0  0  0  0  0  0  0  0  0  0  0
    0.4147   -2.4915   -0.9426 H   0  0  0  0  0  0  0  0  0  0  0  0
   -2.9896   -3.1252   -0.4395 H   0  0  0  0  0  0  0  0  0  0  0  0
   -2.4371   -2.9540    1.3473 H   0  0  0  0  0  0  0  0  0  0  0  0
   -5.2994   -3.3359    0.9121 H   0  0  0  0  0  0  0  0  0  0  0  0
   -7.3814   -1.9817    1.3312 H   0  0  0  0  0  0  0  0  0  0  0  0
   -6.4293   -0.4190    1.0749 H   0  0  0  0  0  0  0  0  0  0  0  0
   -6.7998   -2.7802   -1.0014 H   0  0  0  0  0  0  0  0  0  0  0  0
   -6.0207   -1.1329   -1.2758 H   0  0  0  0  0  0  0  0  0  0  0  0
   -3.7621   -1.2885   -1.2747 H   0  0  0  0  0  0  0  0  0  0  0  0
   -4.3299    0.6197   -2.4489 H   0  0  0  0  0  0  0  0  0  0  0  0
   -5.0317    2.9895   -2.5380 H   0  0  0  0  0  0  0  0  0  0  0  0
   -4.3468    3.3019    1.6929 H   0  0  0  0  0  0  0  0  0  0  0  0
   -3.6536    0.9312    1.7457 H   0  0  0  0  0  0  0  0  0  0  0  0
    4.4663    5.1141   -0.5751 H   0  0  0  0  0  0  0  0  0  0  0  0
    6.1824    4.6081   -1.0401 H   0  0  0  0  0  0  0  0  0  0  0  0
    4.7446    4.1890   -2.1223 H   0  0  0  0  0  0  0  0  0  0  0  0
  1  2  1  0
  2  3  1  0
  3  4  1  0
  3  5  1  0
  5  6  1  0
  6  7  1  0
  7  8  2  0
  7  9  1  0
  9 10  1  0
 10 11  1  0
 11 12  1  0
 12 13  1  0
 13 14  1  0
 12 15  1  0
 15 16  1  0
 16 17  1  0
 17 18  1  0
 18 19  1  0
 16 20  1  0
 20 21  1  0
 21 22  2  0
 22 23  1  0
 23 24  2  0
 24 25  1  0
 24 26  1  0
 26 27  2  0
  5 28  1  0
 28 29  2  0
 28 30  1  0
 30 31  1  0
 14  9  1  0
 19 17  1  0
 27 21  1  0
 20 12  1  0
  1 32  1  0
  1 33  1  0
  1 34  1  0
  2 35  1  0
  2 36  1  0
  3 37  1  6
  4 38  1  0
  4 39  1  0
  4 40  1  0
  5 41  1  1
  6 42  1  0
 10 43  1  0
 10 44  1  0
 11 45  1  0
 11 46  1  0
 13 47  1  0
 13 48  1  0
 14 49  1  0
 14 50  1  0
 15 51  1  0
 15 52  1  0
 17 53  1  0
 18 54  1  0
 18 55  1  0
 19 56  1  0
 19 57  1  0
 20 58  1  6
 22 59  1  0
 23 60  1  0
 26 61  1  0
 27 62  1  0
 31 63  1  0
 31 64  1  0
 31 65  1  0
M  END
>  <fragInfo>  (1) 
9 10 11 12 13 14 15 16 20 43 44 45 46 47 48 49 50 51 52 58
1 32 33 34
2 35 36
3 37
4 38 39 40
5 41
6 7 8 42
17 18 19 53 54 55 56 57
21 22 23 24 25 26 27 59 60 61 62
28 29
30
31 63 64 65


>  <torsionInfo>  (1) 
7 9 6 0
16 17 0 7
20 21 0 8
1 2 1 2
2 3 2 3
3 4 3 4
3 5 3 5
5 6 5 6
5 28 5 9
28 30 9 10
30 31 10 11


>  <atomInfo>  (1) 
1  -0.0650356C 
2  -0.0510302C 
3  -0.0131967C 
4  -0.0599687C 
5  0.13075216C 
6  -0.3241245N 
7  0.31761778C 
8  -0.2486474OA
9  -0.3247699N 
10 0.02287059C 
11 -0.0265487C 
12 0.00616484C 
13 -0.0265487C 
14 0.02287059C 
15 0.00669985C 
16 -0.2921515NA
17 0.01030215C 
18 -0.0360283C 
19 -0.0360283C 
20 0.04206379C 
21 -0.0300813A 
22 -0.0559520A 
23 -0.0431945A 
24 0.04057034A 
25 -0.0843441Cl
26 -0.0431945A 
27 -0.0559520A 
28 0.32819461C 
29 -0.2498040OA
30 -0.4674771OA
31 0.08066878C 
32 0.02304679H 
33 0.02304679H 
34 0.02304679H 
35 0.02673678H 
36 0.02673678H 
37 0.03269372H 
38 0.02341031H 
39 0.02341031H 
40 0.02341031H 
41 0.06546949H 
42 0.16581578HD
43 0.04946894H 
44 0.04946894H 
45 0.02915953H 
46 0.02915953H 
47 0.02915953H 
48 0.02915953H 
49 0.04946894H 
50 0.04946894H 
51 0.04374739H 
52 0.04374739H 
53 0.04674155H 
54 0.02831415H 
55 0.02831415H 
56 0.02831415H 
57 0.02831415H 
58 0.05248853H 
59 0.06267426H 
60 0.06385130H 
61 0.06385130H 
62 0.06267426H 
63 0.06697772H 
64 0.06697772H 
65 0.06697772H 


$$$$
