
     RDKit          3D

 61 63  0  0  0  0  0  0  0  0999 V2000
   -4.2108    0.1956    3.1687 C   0  0  0  0  0  0  0  0  0  0  0  0
   -3.6872    1.3892    2.4298 C   0  0  0  0  0  0  0  0  0  0  0  0
   -4.2456    1.5010    1.0268 C   0  0  2  0  0  0  0  0  0  0  0  0
   -5.7294    1.6154    1.1221 C   0  0  0  0  0  0  0  0  0  0  0  0
   -3.7965    0.3210    0.2037 C   0  0  2  0  0  0  0  0  0  0  0  0
   -2.3490    0.2866    0.1365 N   0  0  0  0  0  0  0  0  0  0  0  0
   -1.5697   -0.7819    0.6820 C   0  0  0  0  0  0  0  0  0  0  0  0
   -2.1986   -1.7166    1.2376 O   0  0  0  0  0  0  0  0  0  0  0  0
   -0.1531   -0.8015    0.6080 N   0  0  0  0  0  0  0  0  0  0  0  0
    0.5648   -1.9194    1.1839 C   0  0  0  0  0  0  0  0  0  0  0  0
    1.7108   -2.2074    0.2165 C   0  0  0  0  0  0  0  0  0  0  0  0
    2.7309   -1.0832    0.2761 C   0  0  0  0  0  0  0  0  0  0  0  0
    2.0270    0.1919    0.5919 C   0  0  0  0  0  0  0  0  0  0  0  0
    0.6364    0.2338   -0.0129 C   0  0  0  0  0  0  0  0  0  0  0  0
    3.8199   -1.4792    1.2508 C   0  0  0  0  0  0  0  0  0  0  0  0
    4.7264   -1.6158    0.1478 N   0  0  0  0  0  0  0  0  0  0  0  0
    5.2214   -2.9328   -0.1146 C   0  0  0  0  0  0  0  0  0  0  0  0
    3.7546   -1.0979   -0.7966 C   0  0  2  0  0  0  0  0  0  0  0  0
    4.2303    0.1942   -1.3391 C   0  0  0  0  0  0  0  0  0  0  0  0
    4.8244    1.1839   -0.5908 C   0  0  0  0  0  0  0  0  0  0  0  0
    5.2622    2.3813   -1.1033 C   0  0  0  0  0  0  0  0  0  0  0  0
    5.1151    2.6397   -2.4326 C   0  0  0  0  0  0  0  0  0  0  0  0
    5.6597    4.1511   -3.1210 Cl  0  0  0  0  0  0  0  0  0  0  0  0
    4.5237    1.6805   -3.2363 C   0  0  0  0  0  0  0  0  0  0  0  0
    4.0933    0.4901   -2.7024 C   0  0  0  0  0  0  0  0  0  0  0  0
   -4.3942    0.2941   -1.1363 C   0  0  0  0  0  0  0  0  0  0  0  0
   -3.5990    0.2538   -2.1362 O   0  0  0  0  0  0  0  0  0  0  0  0
   -5.7246    0.3073   -1.4263 O   0  0  0  0  0  0  0  0  0  0  0  0
   -6.1893    0.2778   -2.7627 C   0  0  0  0  0  0  0  0  0  0  0  0
   -4.9063   -0.4317    2.5981 H   0  0  0  0  0  0  0  0  0  0  0  0
   -4.7852    0.5000    4.0923 H   0  0  0  0  0  0  0  0  0  0  0  0
   -3.3412   -0.3928    3.5571 H   0  0  0  0  0  0  0  0  0  0  0  0
   -2.5757    1.3993    2.4287 H   0  0  0  0  0  0  0  0  0  0  0  0
   -4.0624    2.3092    2.9682 H   0  0  0  0  0  0  0  0  0  0  0  0
   -3.8754    2.4663    0.6049 H   0  0  0  0  0  0  0  0  0  0  0  0
   -6.2299    0.7397    1.5835 H   0  0  0  0  0  0  0  0  0  0  0  0
   -5.9474    2.4718    1.8270 H   0  0  0  0  0  0  0  0  0  0  0  0
   -6.2201    1.9348    0.1659 H   0  0  0  0  0  0  0  0  0  0  0  0
   -4.1198   -0.5980    0.7318 H   0  0  0  0  0  0  0  0  0  0  0  0
   -1.7893    1.0514   -0.3209 H   0  0  0  0  0  0  0  0  0  0  0  0
   -0.0406   -2.8320    1.2802 H   0  0  0  0  0  0  0  0  0  0  0  0
    0.9510   -1.6770    2.1978 H   0  0  0  0  0  0  0  0  0  0  0  0
    1.2522   -2.1834   -0.8002 H   0  0  0  0  0  0  0  0  0  0  0  0
    2.1383   -3.1795    0.4898 H   0  0  0  0  0  0  0  0  0  0  0  0
    2.5710    1.0971    0.3226 H   0  0  0  0  0  0  0  0  0  0  0  0
    1.9225    0.2313    1.7150 H   0  0  0  0  0  0  0  0  0  0  0  0
    0.1776    1.2072    0.2435 H   0  0  0  0  0  0  0  0  0  0  0  0
    0.7081    0.0795   -1.0876 H   0  0  0  0  0  0  0  0  0  0  0  0
    4.1430   -0.6816    1.9389 H   0  0  0  0  0  0  0  0  0  0  0  0
    3.6367   -2.4346    1.8103 H   0  0  0  0  0  0  0  0  0  0  0  0
    4.8977   -3.3231   -1.1004 H   0  0  0  0  0  0  0  0  0  0  0  0
    6.3422   -2.8937   -0.0556 H   0  0  0  0  0  0  0  0  0  0  0  0
    4.9155   -3.5892    0.7336 H   0  0  0  0  0  0  0  0  0  0  0  0
    3.4815   -1.8171   -1.6028 H   0  0  0  0  0  0  0  0  0  0  0  0
    4.9592    1.0152    0.4673 H   0  0  0  0  0  0  0  0  0  0  0  0
    5.7237    3.1301   -0.4767 H   0  0  0  0  0  0  0  0  0  0  0  0
    4.4010    1.8773   -4.3019 H   0  0  0  0  0  0  0  0  0  0  0  0
    3.6246   -0.2812   -3.3130 H   0  0  0  0  0  0  0  0  0  0  0  0
   -5.5272    0.8416   -3.4482 H   0  0  0  0  0  0  0  0  0  0  0  0
   -7.1886    0.7670   -2.7783 H   0  0  0  0  0  0  0  0  0  0  0  0
   -6.2909   -0.7562   -3.1481 H   0  0  0  0  0  0  0  0  0  0  0  0
  1  2  1  0
  2  3  1  0
  3  4  1  0
  3  5  1  0
  5  6  1  0
  6  7  1  0
  7  8  2  0
  7  9  1  0
  9 10  1  0
 10 11  1  0
 11 12  1  0
 12 13  1  0
 13 14  1  0
 12 15  1  0
 15 16  1  0
 16 17  1  0
 16 18  1  0
 18 19  1  0
 19 20  2  0
 20 21  1  0
 21 22  2  0
 22 23  1  0
 22 24  1  0
 24 25  2  0
  5 26  1  0
 26 27  2  0
 26 28  1  0
 28 29  1  0
 14  9  1  0
 25 19  1  0
 18 12  1  0
  1 30  1  0
  1 31  1  0
  1 32  1  0
  2 33  1  0
  2 34  1  0
  3 35  1  6
  4 36  1  0
  4 37  1  0
  4 38  1  0
  5 39  1  1
  6 40  1  0
 10 41  1  0
 10 42  1  0
 11 43  1  0
 11 44  1  0
 13 45  1  0
 13 46  1  0
 14 47  1  0
 14 48  1  0
 15 49  1  0
 15 50  1  0
 17 51  1  0
 17 52  1  0
 17 53  1  0
 18 54  1  6
 20 55  1  0
 21 56  1  0
 24 57  1  0
 25 58  1  0
 29 59  1  0
 29 60  1  0
 29 61  1  0
M  END
>  <fragInfo>  (1) 
9 10 11 12 13 14 15 16 18 41 42 43 44 45 46 47 48 49 50 54
1 30 31 32
2 33 34
3 35
4 36 37 38
5 39
6 7 8 40
17 51 52 53
19 20 21 22 23 24 25 55 56 57 58
26 27
28
29 59 60 61


>  <torsionInfo>  (1) 
7 9 6 0
16 17 0 7
18 19 0 8
1 2 1 2
2 3 2 3
3 4 3 4
3 5 3 5
5 6 5 6
5 26 5 9
26 28 9 10
28 29 10 11


>  <atomInfo>  (1) 
1  -0.0650356C 
2  -0.0510302C 
3  -0.0131967C 
4  -0.0599687C 
5  0.13075216C 
6  -0.3241245N 
7  0.31761778C 
8  -0.2486474OA
9  -0.3247699N 
10 0.02287058C 
11 -0.0265496C 
12 0.00611772C 
13 -0.0265496C 
14 0.02287058C 
15 0.00609974C 
16 -0.2981299NA
17 -0.0127225C 
18 0.04146602C 
19 -0.0301054A 
20 -0.0559524A 
21 -0.0431945A 
22 0.04057034A 
23 -0.0843441Cl
24 -0.0431945A 
25 -0.0559524A 
26 0.32819461C 
27 -0.2498040OA
28 -0.4674771OA
29 0.08066878C 
30 0.02304679H 
31 0.02304679H 
32 0.02304679H 
33 0.02673678H 
34 0.02673678H 
35 0.03269372H 
36 0.02341031H 
37 0.02341031H 
38 0.02341031H 
39 0.06546949H 
40 0.16581578HD
41 0.04946894H 
42 0.04946894H 
43 0.02915953H 
44 0.02915953H 
45 0.02915953H 
46 0.02915953H 
47 0.04946894H 
48 0.04946894H 
49 0.04372378H 
50 0.04372378H 
51 0.03942911H 
52 0.03942911H 
53 0.03942911H 
54 0.05246462H 
55 0.06267426H 
56 0.06385130H 
57 0.06385130H 
58 0.06267426H 
59 0.06697772H 
60 0.06697772H 
61 0.06697772H 


$$$$
