
     RDKit          3D

 50 53  0  0  0  0  0  0  0  0999 V2000
   -4.7583    1.8681    0.2960 C   0  0  0  0  0  0  0  0  0  0  0  0
   -3.3554    2.0131    0.4009 N   0  0  0  0  0  0  0  0  0  0  0  0
   -2.5865    2.1983   -0.7802 C   0  0  0  0  0  0  0  0  0  0  0  0
   -1.5568    1.2372   -0.2292 C   0  0  0  0  0  0  0  0  0  0  0  0
   -1.0622    0.1933   -1.1385 C   0  0  0  0  0  0  0  0  0  0  0  0
    0.2599    0.6358   -1.7337 C   0  0  0  0  0  0  0  0  0  0  0  0
    1.2177    0.6034   -0.6557 N   0  0  0  0  0  0  0  0  0  0  0  0
    2.5045    0.0484   -0.8608 C   0  0  0  0  0  0  0  0  0  0  0  0
    2.7847   -0.4052   -1.9844 O   0  0  0  0  0  0  0  0  0  0  0  0
    3.4067    0.0403    0.2312 N   0  0  0  0  0  0  0  0  0  0  0  0
    4.7003   -0.4814    0.1639 C   0  0  0  0  0  0  0  0  0  0  0  0
    5.5881   -0.1508    1.2006 C   0  0  0  0  0  0  0  0  0  0  0  0
    6.8685   -0.6347    1.2159 C   0  0  0  0  0  0  0  0  0  0  0  0
    7.7147   -0.3065    2.2242 F   0  0  0  0  0  0  0  0  0  0  0  0
    7.3435   -1.4577    0.2303 C   0  0  0  0  0  0  0  0  0  0  0  0
    6.4939   -1.7870   -0.7814 C   0  0  0  0  0  0  0  0  0  0  0  0
    6.9314   -2.5940   -1.7647 F   0  0  0  0  0  0  0  0  0  0  0  0
    5.1779   -1.3042   -0.8191 C   0  0  0  0  0  0  0  0  0  0  0  0
    0.8178    1.1505    0.6192 C   0  0  0  0  0  0  0  0  0  0  0  0
   -0.3916    2.0258    0.3280 C   0  0  0  0  0  0  0  0  0  0  0  0
   -2.5735    0.8905    0.8011 C   0  0  2  0  0  0  0  0  0  0  0  0
   -3.2143   -0.4351    0.7088 C   0  0  0  0  0  0  0  0  0  0  0  0
   -3.1190   -1.3645    1.7265 C   0  0  0  0  0  0  0  0  0  0  0  0
   -3.7117   -2.6085    1.6570 C   0  0  0  0  0  0  0  0  0  0  0  0
   -4.4399   -2.9940    0.5533 C   0  0  0  0  0  0  0  0  0  0  0  0
   -5.0403   -4.1948    0.4302 F   0  0  0  0  0  0  0  0  0  0  0  0
   -4.5438   -2.0778   -0.4694 C   0  0  0  0  0  0  0  0  0  0  0  0
   -3.9471   -0.8354   -0.3908 C   0  0  0  0  0  0  0  0  0  0  0  0
   -5.1571    1.9025   -0.7367 H   0  0  0  0  0  0  0  0  0  0  0  0
   -5.2625    2.7282    0.8275 H   0  0  0  0  0  0  0  0  0  0  0  0
   -5.0744    0.9658    0.8587 H   0  0  0  0  0  0  0  0  0  0  0  0
   -3.0391    1.9174   -1.7457 H   0  0  0  0  0  0  0  0  0  0  0  0
   -2.2451    3.2628   -0.8549 H   0  0  0  0  0  0  0  0  0  0  0  0
   -1.7213   -0.0489   -1.9931 H   0  0  0  0  0  0  0  0  0  0  0  0
   -0.8568   -0.7311   -0.5614 H   0  0  0  0  0  0  0  0  0  0  0  0
    0.1276    1.6788   -2.1069 H   0  0  0  0  0  0  0  0  0  0  0  0
    0.5601    0.0016   -2.5913 H   0  0  0  0  0  0  0  0  0  0  0  0
    3.0865    0.4511    1.1675 H   0  0  0  0  0  0  0  0  0  0  0  0
    5.2464    0.4928    1.9874 H   0  0  0  0  0  0  0  0  0  0  0  0
    8.3670   -1.8328    0.2601 H   0  0  0  0  0  0  0  0  0  0  0  0
    4.5435   -1.6135   -1.6512 H   0  0  0  0  0  0  0  0  0  0  0  0
    0.5940    0.3386    1.3167 H   0  0  0  0  0  0  0  0  0  0  0  0
    1.6135    1.8423    0.9595 H   0  0  0  0  0  0  0  0  0  0  0  0
   -0.0872    2.8010   -0.3841 H   0  0  0  0  0  0  0  0  0  0  0  0
   -0.6435    2.5315    1.2878 H   0  0  0  0  0  0  0  0  0  0  0  0
   -2.1672    1.0467    1.8225 H   0  0  0  0  0  0  0  0  0  0  0  0
   -2.5615   -1.1220    2.6183 H   0  0  0  0  0  0  0  0  0  0  0  0
   -3.6329   -3.3365    2.4623 H   0  0  0  0  0  0  0  0  0  0  0  0
   -5.1220   -2.3665   -1.3612 H   0  0  0  0  0  0  0  0  0  0  0  0
   -4.0772   -0.1831   -1.2305 H   0  0  0  0  0  0  0  0  0  0  0  0
  1  2  1  0
  2  3  1  0
  3  4  1  0
  4  5  1  0
  5  6  1  0
  6  7  1  0
  7  8  1  0
  8  9  2  0
  8 10  1  0
 10 11  1  0
 11 12  2  0
 12 13  1  0
 13 14  1  0
 13 15  2  0
 15 16  1  0
 16 17  1  0
 16 18  2  0
  7 19  1  0
 19 20  1  0
  4 21  1  0
 21 22  1  0
 22 23  2  0
 23 24  1  0
 24 25  2  0
 25 26  1  0
 25 27  1  0
 27 28  2  0
 21  2  1  0
 28 22  1  0
 20  4  1  0
 18 11  1  0
  1 29  1  0
  1 30  1  0
  1 31  1  0
  3 32  1  0
  3 33  1  0
  5 34  1  0
  5 35  1  0
  6 36  1  0
  6 37  1  0
 10 38  1  0
 12 39  1  0
 15 40  1  0
 18 41  1  0
 19 42  1  0
 19 43  1  0
 20 44  1  0
 20 45  1  0
 21 46  1  1
 23 47  1  0
 24 48  1  0
 27 49  1  0
 28 50  1  0
M  END
>  <fragInfo>  (1) 
2 3 4 5 6 7 19 20 21 32 33 34 35 36 37 42 43 44 45 46
1 29 30 31
8 9 10 38
11 12 13 14 15 16 17 18 39 40 41
22 23 24 25 26 27 28 47 48 49 50


>  <torsionInfo>  (1) 
1 2 1 0
7 8 0 2
21 22 0 4
10 11 2 3


>  <atomInfo>  (1) 
1  -0.0127225C 
2  -0.2981299NA
3  0.00609974C 
4  0.00611774C 
5  -0.0265494C 
6  0.02288250C 
7  -0.3244906N 
8  0.32134179C 
9  -0.2482699OA
10 -0.3076294N 
11 0.04820000A 
12 -0.0023614A 
13 0.12769352A 
14 -0.2068170F 
15 0.00971451A 
16 0.12769352A 
17 -0.2068170F 
18 -0.0023614A 
19 0.02288250C 
20 -0.0265494C 
21 0.04146775C 
22 -0.0300033A 
23 -0.0545244A 
24 -0.0259899A 
25 0.12272922A 
26 -0.2070121F 
27 -0.0259899A 
28 -0.0545244A 
29 0.03942911H 
30 0.03942911H 
31 0.03942911H 
32 0.04372378H 
33 0.04372378H 
34 0.02915953H 
35 0.02915953H 
36 0.04946914H 
37 0.04946914H 
38 0.17137277HD
39 0.06758253H 
40 0.06847673H 
41 0.06758253H 
42 0.04946914H 
43 0.04946914H 
44 0.02915953H 
45 0.02915953H 
46 0.05246463H 
47 0.06272629H 
48 0.06536923H 
49 0.06536923H 
50 0.06272629H 


$$$$
