
     RDKit          3D

 68 71  0  0  0  0  0  0  0  0999 V2000
    4.4303   -1.3733    3.0154 C   0  0  0  0  0  0  0  0  0  0  0  0
    4.1444   -1.3031    1.5889 N   0  0  0  0  0  0  0  0  0  0  0  0
    3.2021   -2.1862    0.9508 C   0  0  0  0  0  0  0  0  0  0  0  0
    1.8075   -1.6046    0.9505 C   0  0  0  0  0  0  0  0  0  0  0  0
    0.8749   -2.2550    0.4397 O   0  0  0  0  0  0  0  0  0  0  0  0
    1.6022   -0.3420    1.5284 N   0  0  0  0  0  0  0  0  0  0  0  0
    0.3598    0.3182    1.6062 C   0  0  0  0  0  0  0  0  0  0  0  0
    0.3525    1.6806    1.9492 C   0  0  0  0  0  0  0  0  0  0  0  0
   -0.8234    2.3772    2.0605 C   0  0  0  0  0  0  0  0  0  0  0  0
   -2.0300    1.7724    1.8423 C   0  0  0  0  0  0  0  0  0  0  0  0
   -2.0616    0.4380    1.5046 C   0  0  0  0  0  0  0  0  0  0  0  0
   -3.5967   -0.3089    1.2393 S   0  0  0  0  0  0  0  0  0  0  0  0
   -3.6344   -1.7352    1.6988 O   0  0  0  0  0  0  0  0  0  0  0  0
   -4.6359    0.4340    2.0563 O   0  0  0  0  0  0  0  0  0  0  0  0
   -4.0228   -0.1522   -0.4180 N   0  0  0  0  0  0  0  0  0  0  0  0
   -4.1813    1.1801   -0.9501 C   0  0  0  0  0  0  0  0  0  0  0  0
   -5.5379    1.7264   -0.7958 C   0  0  0  0  0  0  0  0  0  0  0  0
   -6.5120    1.3513   -1.6855 C   0  0  0  0  0  0  0  0  0  0  0  0
   -7.8002    1.8508   -1.5721 C   0  0  0  0  0  0  0  0  0  0  0  0
   -8.1156    2.7254   -0.5695 C   0  0  0  0  0  0  0  0  0  0  0  0
   -7.1498    3.1232    0.3465 C   0  0  0  0  0  0  0  0  0  0  0  0
   -5.8629    2.6042    0.2074 C   0  0  0  0  0  0  0  0  0  0  0  0
   -4.2091   -1.3149   -1.2318 C   0  0  0  0  0  0  0  0  0  0  0  0
   -5.4392   -1.9209   -1.3527 C   0  0  0  0  0  0  0  0  0  0  0  0
   -5.5522   -3.0360   -2.1520 C   0  0  0  0  0  0  0  0  0  0  0  0
   -4.4825   -3.5772   -2.8412 C   0  0  0  0  0  0  0  0  0  0  0  0
   -3.2441   -2.9828   -2.7310 C   0  0  0  0  0  0  0  0  0  0  0  0
   -1.8268   -3.5887   -3.5611 Cl  0  0  0  0  0  0  0  0  0  0  0  0
   -3.1479   -1.8703   -1.9294 C   0  0  0  0  0  0  0  0  0  0  0  0
   -0.8551   -0.2595    1.3947 C   0  0  0  0  0  0  0  0  0  0  0  0
    4.8211   -0.3362    0.8188 C   0  0  0  0  0  0  0  0  0  0  0  0
    5.6417    0.4350    1.3505 O   0  0  0  0  0  0  0  0  0  0  0  0
    4.5679   -0.2476   -0.5369 O   0  0  0  0  0  0  0  0  0  0  0  0
    5.2482    0.7180   -1.2886 C   0  0  0  0  0  0  0  0  0  0  0  0
    6.7387    0.5269   -1.2428 C   0  0  0  0  0  0  0  0  0  0  0  0
    7.5523    1.5436   -1.7107 C   0  0  0  0  0  0  0  0  0  0  0  0
    8.9082    1.3834   -1.6790 C   0  0  0  0  0  0  0  0  0  0  0  0
    9.5025    0.2494   -1.1995 C   0  0  0  0  0  0  0  0  0  0  0  0
    8.6852   -0.7574   -0.7359 C   0  0  0  0  0  0  0  0  0  0  0  0
    7.3145   -0.6165   -0.7588 C   0  0  0  0  0  0  0  0  0  0  0  0
    3.9627   -2.2576    3.4718 H   0  0  0  0  0  0  0  0  0  0  0  0
    4.1217   -0.4777    3.5676 H   0  0  0  0  0  0  0  0  0  0  0  0
    5.5479   -1.4453    3.1595 H   0  0  0  0  0  0  0  0  0  0  0  0
    3.4841   -2.3420   -0.1026 H   0  0  0  0  0  0  0  0  0  0  0  0
    3.1089   -3.1559    1.4817 H   0  0  0  0  0  0  0  0  0  0  0  0
    2.4798    0.1321    1.9354 H   0  0  0  0  0  0  0  0  0  0  0  0
    1.3048    2.1567    2.1212 H   0  0  0  0  0  0  0  0  0  0  0  0
   -0.7846    3.4260    2.3268 H   0  0  0  0  0  0  0  0  0  0  0  0
   -2.9467    2.3417    1.9352 H   0  0  0  0  0  0  0  0  0  0  0  0
   -3.8645    1.2078   -2.0347 H   0  0  0  0  0  0  0  0  0  0  0  0
   -3.4130    1.8370   -0.4449 H   0  0  0  0  0  0  0  0  0  0  0  0
   -6.3076    0.6538   -2.5048 H   0  0  0  0  0  0  0  0  0  0  0  0
   -8.5386    1.5182   -2.3092 H   0  0  0  0  0  0  0  0  0  0  0  0
   -9.1198    3.1132   -0.4829 H   0  0  0  0  0  0  0  0  0  0  0  0
   -7.4029    3.8174    1.1412 H   0  0  0  0  0  0  0  0  0  0  0  0
   -5.1353    2.9337    0.9365 H   0  0  0  0  0  0  0  0  0  0  0  0
   -6.2880   -1.5049   -0.8157 H   0  0  0  0  0  0  0  0  0  0  0  0
   -6.5290   -3.5160   -2.2477 H   0  0  0  0  0  0  0  0  0  0  0  0
   -4.5998   -4.4619   -3.4682 H   0  0  0  0  0  0  0  0  0  0  0  0
   -2.1722   -1.4087   -1.8473 H   0  0  0  0  0  0  0  0  0  0  0  0
   -0.9446   -1.2942    1.1386 H   0  0  0  0  0  0  0  0  0  0  0  0
    5.0399    1.7608   -0.9427 H   0  0  0  0  0  0  0  0  0  0  0  0
    4.9623    0.6310   -2.3708 H   0  0  0  0  0  0  0  0  0  0  0  0
    7.0836    2.4596   -2.0980 H   0  0  0  0  0  0  0  0  0  0  0  0
    9.5548    2.1858   -2.0484 H   0  0  0  0  0  0  0  0  0  0  0  0
   10.5944    0.1196   -1.1734 H   0  0  0  0  0  0  0  0  0  0  0  0
    9.1046   -1.6800   -0.3444 H   0  0  0  0  0  0  0  0  0  0  0  0
    6.6643   -1.4204   -0.3907 H   0  0  0  0  0  0  0  0  0  0  0  0
  1  2  1  0
  2  3  1  0
  3  4  1  0
  4  5  2  0
  4  6  1  0
  6  7  1  0
  7  8  2  0
  8  9  1  0
  9 10  2  0
 10 11  1  0
 11 12  1  0
 12 13  2  0
 12 14  2  0
 12 15  1  0
 15 16  1  0
 16 17  1  0
 17 18  2  0
 18 19  1  0
 19 20  2  0
 20 21  1  0
 21 22  2  0
 15 23  1  0
 23 24  2  0
 24 25  1  0
 25 26  2  0
 26 27  1  0
 27 28  1  0
 27 29  2  0
 11 30  2  0
  2 31  1  0
 31 32  2  0
 31 33  1  0
 33 34  1  0
 34 35  1  0
 35 36  2  0
 36 37  1  0
 37 38  2  0
 38 39  1  0
 39 40  2  0
 30  7  1  0
 40 35  1  0
 22 17  1  0
 29 23  1  0
  1 41  1  0
  1 42  1  0
  1 43  1  0
  3 44  1  0
  3 45  1  0
  6 46  1  0
  8 47  1  0
  9 48  1  0
 10 49  1  0
 16 50  1  0
 16 51  1  0
 18 52  1  0
 19 53  1  0
 20 54  1  0
 21 55  1  0
 22 56  1  0
 24 57  1  0
 25 58  1  0
 26 59  1  0
 29 60  1  0
 30 61  1  0
 34 62  1  0
 34 63  1  0
 36 64  1  0
 37 65  1  0
 38 66  1  0
 39 67  1  0
 40 68  1  0
M  END
>  <fragInfo>  (1) 
17 18 19 20 21 22 52 53 54 55 56
1 41 42 43
2
3 44 45
4 5 6 46
7 8 9 10 11 30 47 48 49 61
12 13 14
15
16 50 51
23 24 25 26 27 28 29 57 58 59 60
31 32
33
34 62 63
35 36 37 38 39 40 64 65 66 67 68


>  <torsionInfo>  (1) 
16 17 8 0
1 2 1 2
2 3 2 3
2 31 2 10
3 4 3 4
6 7 4 5
11 12 5 6
12 15 6 7
15 16 7 8
15 23 7 9
31 33 10 11
33 34 11 12
34 35 12 13


>  <atomInfo>  (1) 
1  0.01312781C 
2  -0.3019476N 
3  0.10288676C 
4  0.24361843C 
5  -0.2726672OA
6  -0.3245054N 
7  0.04209899A 
8  -0.0384462A 
9  -0.0588338A 
10 -0.0414675A 
11 0.08959903A 
12 0.26420144S 
13 -0.2010227OA
14 -0.2010227OA
15 -0.2618648N 
16 0.05940349C 
17 -0.0274290A 
18 -0.0572114A 
19 -0.0619264A 
20 -0.0622464A 
21 -0.0619264A 
22 -0.0572114A 
23 0.05369135A 
24 -0.0375922A 
25 -0.0586925A 
26 -0.0433738A 
27 0.04264415A 
28 -0.0842631Cl
29 -0.0189832A 
30 -0.0179113A 
31 0.40980416C 
32 -0.2243438OA
33 -0.4445383OA
34 0.11831413C 
35 -0.0105792A 
36 -0.0556290A 
37 -0.0618669A 
38 -0.0622444A 
39 -0.0618669A 
40 -0.0556290A 
41 0.04586105H 
42 0.04586105H 
43 0.04586105H 
44 0.05984450H 
45 0.05984450H 
46 0.16949897HD
47 0.06447117H 
48 0.06239001H 
49 0.06371230H 
50 0.05568929H 
51 0.05568929H 
52 0.06262940H 
53 0.06227978H 
54 0.06226891H 
55 0.06227978H 
56 0.06262940H 
57 0.06449973H 
58 0.06239886H 
59 0.06384271H 
60 0.06607929H 
61 0.06591995H 
62 0.07604639H 
63 0.07604639H 
64 0.06268997H 
65 0.06228078H 
66 0.06226892H 
67 0.06228078H 
68 0.06268997H 


$$$$
