
     RDKit          3D

  8  7  0  0  0  0  0  0  0  0999 V2000
   -1.7905    1.3095   -0.0786 C   0  0  0  0  0  0  0  0  0  0  0  0
   -2.3600    0.1214   -0.2722 C   0  0  0  0  0  0  0  0  0  0  0  0
   -1.5319   -1.0780   -0.3094 C   0  0  0  0  0  0  0  0  0  0  0  0
   -0.2707   -1.0838   -0.1678 N   0  0  0  0  0  0  0  0  0  0  0  0
    0.5693    0.0557    0.0510 C   0  0  2  0  0  0  0  0  0  0  0  0
    1.8697   -0.2437   -0.4525 N   0  0  0  0  0  0  0  0  0  0  0  0
    2.8675    0.4859   -0.2021 C   0  0  0  0  0  0  0  0  0  0  0  0
    0.6466    0.4331    1.4317 N   0  0  0  0  0  0  0  0  0  0  0  0
  1  2  2  0
  2  3  1  0
  3  4  2  3
  4  5  1  0
  5  6  1  0
  6  7  2  0
  5  8  1  1
M  END
$$$$
