
     RDKit          3D

  7  6  0  0  0  0  0  0  0  0999 V2000
   -0.3910   -1.6606   -0.7457 C   0  0  0  0  0  0  0  0  0  0  0  0
   -0.7816   -0.5680    0.2091 C   0  0  2  0  0  0  0  0  0  0  0  0
   -0.9702    0.7441   -0.5246 C   0  0  0  0  0  0  0  0  0  0  0  0
   -1.3620    1.8566    0.4076 C   0  0  0  0  0  0  0  0  0  0  0  0
    0.2929   -0.3967    1.2842 C   0  0  0  0  0  0  0  0  0  0  0  0
    1.5766   -0.0419    0.6158 C   0  0  0  0  0  0  0  0  0  0  0  0
    1.6353    0.0665   -0.6124 O   0  0  0  0  0  0  0  0  0  0  0  0
  2  1  1  6
  2  3  1  0
  3  4  1  0
  2  5  1  0
  5  6  1  0
  6  7  2  0
M  END
$$$$
