
     RDKit          3D

 67 69  0  0  0  0  0  0  0  0999 V2000
  135.4185  116.9332  134.5813 C   0  0  0  0  0  0  0  0  0  0  0  0
  135.5198  117.3377  136.0126 C   0  0  0  0  0  0  0  0  0  0  0  0
  136.3906  118.5514  136.2858 C   0  0  2  0  0  0  0  0  0  0  0  0
  137.7958  118.2964  135.7618 C   0  0  0  0  0  0  0  0  0  0  0  0
  136.4242  118.8304  137.7256 C   0  0  2  0  0  0  0  0  0  0  0  0
  136.1475  120.2238  138.0928 N   0  0  0  0  0  0  0  0  0  0  0  0
  135.2881  120.5942  139.1592 C   0  0  0  0  0  0  0  0  0  0  0  0
  134.7539  119.6563  139.8503 O   0  0  0  0  0  0  0  0  0  0  0  0
  134.9831  121.9360  139.5034 N   0  0  0  0  0  0  0  0  0  0  0  0
  133.8106  122.1505  140.2974 C   0  0  0  0  0  0  0  0  0  0  0  0
  133.4185  123.5535  140.5677 C   0  0  0  0  0  0  0  0  0  0  0  0
  133.9017  124.5956  139.6453 C   0  0  0  0  0  0  0  0  0  0  0  0
  134.8378  124.1089  138.5906 C   0  0  0  0  0  0  0  0  0  0  0  0
  135.7828  123.0480  139.0890 C   0  0  0  0  0  0  0  0  0  0  0  0
  132.7940  125.4217  138.9246 C   0  0  0  0  0  0  0  0  0  0  0  0
  133.4650  126.5577  139.3995 N   0  0  0  0  0  0  0  0  0  0  0  0
  133.6985  127.7288  138.7224 C   0  0  0  0  0  0  0  0  0  0  0  0
  132.5543  128.7132  139.0124 C   0  0  0  0  0  0  0  0  0  0  0  0
  135.0292  128.3900  138.9178 C   0  0  0  0  0  0  0  0  0  0  0  0
  134.3136  125.9123  140.2981 C   0  0  1  0  0  0  0  0  0  0  0  0
  133.9067  126.1382  141.6940 C   0  0  0  0  0  0  0  0  0  0  0  0
  134.8079  125.8910  142.7406 C   0  0  0  0  0  0  0  0  0  0  0  0
  134.4924  126.0952  144.0592 C   0  0  0  0  0  0  0  0  0  0  0  0
  133.2564  126.5571  144.4129 C   0  0  0  0  0  0  0  0  0  0  0  0
  132.8780  126.8096  146.1181 Cl  0  0  0  0  0  0  0  0  0  0  0  0
  132.3334  126.8159  143.4283 C   0  0  0  0  0  0  0  0  0  0  0  0
  132.6839  126.5993  142.0963 C   0  0  0  0  0  0  0  0  0  0  0  0
  137.6552  118.3653  138.4511 C   0  0  0  0  0  0  0  0  0  0  0  0
  137.9775  117.1520  138.4951 O   0  0  0  0  0  0  0  0  0  0  0  0
  138.5040  119.2484  139.1135 O   0  0  0  0  0  0  0  0  0  0  0  0
  138.3977  119.3166  140.5509 C   0  0  0  0  0  0  0  0  0  0  0  0
  135.4444  115.8104  134.4490 H   0  0  0  0  0  0  0  0  0  0  0  0
  134.6011  117.4225  134.0522 H   0  0  0  0  0  0  0  0  0  0  0  0
  136.4106  117.2523  134.1146 H   0  0  0  0  0  0  0  0  0  0  0  0
  134.4857  117.4691  136.4014 H   0  0  0  0  0  0  0  0  0  0  0  0
  135.9740  116.4747  136.5883 H   0  0  0  0  0  0  0  0  0  0  0  0
  136.0031  119.4017  135.6645 H   0  0  0  0  0  0  0  0  0  0  0  0
  137.9049  118.5487  134.6982 H   0  0  0  0  0  0  0  0  0  0  0  0
  138.1392  117.2739  135.9338 H   0  0  0  0  0  0  0  0  0  0  0  0
  138.4886  119.0422  136.2834 H   0  0  0  0  0  0  0  0  0  0  0  0
  135.6165  118.2406  138.2635 H   0  0  0  0  0  0  0  0  0  0  0  0
  136.6022  120.9875  137.5498 H   0  0  0  0  0  0  0  0  0  0  0  0
  132.9418  121.6239  139.8010 H   0  0  0  0  0  0  0  0  0  0  0  0
  133.9722  121.6198  141.2772 H   0  0  0  0  0  0  0  0  0  0  0  0
  132.2789  123.5796  140.5223 H   0  0  0  0  0  0  0  0  0  0  0  0
  133.6380  123.8355  141.6592 H   0  0  0  0  0  0  0  0  0  0  0  0
  135.3798  124.9868  138.1671 H   0  0  0  0  0  0  0  0  0  0  0  0
  134.2532  123.7097  137.7054 H   0  0  0  0  0  0  0  0  0  0  0  0
  136.4952  122.8444  138.2704 H   0  0  0  0  0  0  0  0  0  0  0  0
  136.2952  123.4673  139.9784 H   0  0  0  0  0  0  0  0  0  0  0  0
  131.8142  125.1482  139.2937 H   0  0  0  0  0  0  0  0  0  0  0  0
  132.8189  125.3047  137.8125 H   0  0  0  0  0  0  0  0  0  0  0  0
  133.5975  127.5596  137.6152 H   0  0  0  0  0  0  0  0  0  0  0  0
  131.7808  128.1555  139.5380 H   0  0  0  0  0  0  0  0  0  0  0  0
  132.9426  129.5809  139.5928 H   0  0  0  0  0  0  0  0  0  0  0  0
  132.1329  129.1324  138.0827 H   0  0  0  0  0  0  0  0  0  0  0  0
  135.1933  129.0594  138.0497 H   0  0  0  0  0  0  0  0  0  0  0  0
  135.8727  127.6686  138.9303 H   0  0  0  0  0  0  0  0  0  0  0  0
  135.0991  129.0092  139.8184 H   0  0  0  0  0  0  0  0  0  0  0  0
  135.4113  126.0207  140.1785 H   0  0  0  0  0  0  0  0  0  0  0  0
  135.8022  125.5252  142.5391 H   0  0  0  0  0  0  0  0  0  0  0  0
  135.2128  125.9039  144.8518 H   0  0  0  0  0  0  0  0  0  0  0  0
  131.3427  127.1813  143.7004 H   0  0  0  0  0  0  0  0  0  0  0  0
  131.9249  126.8186  141.3573 H   0  0  0  0  0  0  0  0  0  0  0  0
  139.3337  118.9561  141.0247 H   0  0  0  0  0  0  0  0  0  0  0  0
  138.1921  120.3283  140.9099 H   0  0  0  0  0  0  0  0  0  0  0  0
  137.5729  118.6225  140.8895 H   0  0  0  0  0  0  0  0  0  0  0  0
  1  2  1  0
  2  3  1  0
  3  4  1  0
  3  5  1  0
  5  6  1  0
  6  7  1  0
  7  8  2  0
  7  9  1  0
  9 10  1  0
 10 11  1  0
 11 12  1  0
 12 13  1  0
 13 14  1  0
 12 15  1  0
 15 16  1  0
 16 17  1  0
 17 18  1  0
 17 19  1  0
 16 20  1  0
 20 21  1  0
 21 22  2  0
 22 23  1  0
 23 24  2  0
 24 25  1  0
 24 26  1  0
 26 27  2  0
  5 28  1  0
 28 29  2  0
 28 30  1  0
 30 31  1  0
 14  9  1  0
 27 21  1  0
 20 12  1  0
  1 32  1  0
  1 33  1  0
  1 34  1  0
  2 35  1  0
  2 36  1  0
  3 37  1  6
  4 38  1  0
  4 39  1  0
  4 40  1  0
  5 41  1  1
  6 42  1  0
 10 43  1  0
 10 44  1  0
 11 45  1  0
 11 46  1  0
 13 47  1  0
 13 48  1  0
 14 49  1  0
 14 50  1  0
 15 51  1  0
 15 52  1  0
 17 53  1  0
 18 54  1  0
 18 55  1  0
 18 56  1  0
 19 57  1  0
 19 58  1  0
 19 59  1  0
 20 60  1  1
 22 61  1  0
 23 62  1  0
 26 63  1  0
 27 64  1  0
 31 65  1  0
 31 66  1  0
 31 67  1  0
M  END
>  <docking_score>  (1) 
-6.1699999999999999

$$$$

     RDKit          3D

 67 69  0  0  0  0  0  0  0  0999 V2000
  127.7561  145.7119  145.6144 C   0  0  0  0  0  0  0  0  0  0  0  0
  128.3844  145.0902  144.4138 C   0  0  0  0  0  0  0  0  0  0  0  0
  129.6727  145.7416  143.9426 C   0  0  2  0  0  0  0  0  0  0  0  0
  129.4432  147.2315  143.7387 C   0  0  0  0  0  0  0  0  0  0  0  0
  130.1223  145.1173  142.6935 C   0  0  2  0  0  0  0  0  0  0  0  0
  130.3226  143.6655  142.7641 N   0  0  0  0  0  0  0  0  0  0  0  0
  129.4950  142.7296  142.0918 C   0  0  0  0  0  0  0  0  0  0  0  0
  128.5441  143.1866  141.3639 O   0  0  0  0  0  0  0  0  0  0  0  0
  129.6542  141.3229  142.1789 N   0  0  0  0  0  0  0  0  0  0  0  0
  128.5479  140.5183  141.7548 C   0  0  0  0  0  0  0  0  0  0  0  0
  128.6581  139.0533  141.9468 C   0  0  0  0  0  0  0  0  0  0  0  0
  129.5977  138.5594  142.9682 C   0  0  0  0  0  0  0  0  0  0  0  0
  130.4204  139.6182  143.6222 C   0  0  0  0  0  0  0  0  0  0  0  0
  130.8471  140.7023  142.6685 C   0  0  0  0  0  0  0  0  0  0  0  0
  128.9640  137.7065  144.1083 C   0  0  0  0  0  0  0  0  0  0  0  0
  129.9340  136.7428  143.7977 N   0  0  0  0  0  0  0  0  0  0  0  0
  130.6585  135.9786  144.6784 C   0  0  0  0  0  0  0  0  0  0  0  0
  131.1905  136.8790  145.8046 C   0  0  0  0  0  0  0  0  0  0  0  0
  129.9986  134.7571  145.2430 C   0  0  0  0  0  0  0  0  0  0  0  0
  130.3712  137.2975  142.5954 C   0  0  1  0  0  0  0  0  0  0  0  0
  129.9000  136.5269  141.4337 C   0  0  0  0  0  0  0  0  0  0  0  0
  130.1911  136.9633  140.1324 C   0  0  0  0  0  0  0  0  0  0  0  0
  129.7920  136.2820  139.0114 C   0  0  0  0  0  0  0  0  0  0  0  0
  129.0758  135.1240  139.1222 C   0  0  0  0  0  0  0  0  0  0  0  0
  128.5746  134.2689  137.6619 Cl  0  0  0  0  0  0  0  0  0  0  0  0
  128.7619  134.6501  140.3732 C   0  0  0  0  0  0  0  0  0  0  0  0
  129.1826  135.3646  141.4943 C   0  0  0  0  0  0  0  0  0  0  0  0
  131.3213  145.7486  142.0441 C   0  0  0  0  0  0  0  0  0  0  0  0
  132.4065  145.8938  142.6599 O   0  0  0  0  0  0  0  0  0  0  0  0
  131.2975  146.2073  140.7296 O   0  0  0  0  0  0  0  0  0  0  0  0
  130.1144  145.9282  139.9521 C   0  0  0  0  0  0  0  0  0  0  0  0
  127.8104  145.0418  146.5236 H   0  0  0  0  0  0  0  0  0  0  0  0
  128.0913  146.7327  145.7962 H   0  0  0  0  0  0  0  0  0  0  0  0
  126.6366  145.7200  145.3894 H   0  0  0  0  0  0  0  0  0  0  0  0
  128.5169  144.0058  144.6241 H   0  0  0  0  0  0  0  0  0  0  0  0
  127.6488  145.1653  143.5560 H   0  0  0  0  0  0  0  0  0  0  0  0
  130.4180  145.6783  144.7792 H   0  0  0  0  0  0  0  0  0  0  0  0
  128.3815  147.4848  143.6145 H   0  0  0  0  0  0  0  0  0  0  0  0
  130.0191  147.6449  142.9077 H   0  0  0  0  0  0  0  0  0  0  0  0
  129.7268  147.7514  144.7173 H   0  0  0  0  0  0  0  0  0  0  0  0
  129.3395  145.2459  141.8810 H   0  0  0  0  0  0  0  0  0  0  0  0
  131.1115  143.2930  143.3331 H   0  0  0  0  0  0  0  0  0  0  0  0
  127.6179  140.8813  142.2856 H   0  0  0  0  0  0  0  0  0  0  0  0
  128.3814  140.7333  140.6621 H   0  0  0  0  0  0  0  0  0  0  0  0
  127.6205  138.6942  142.2561 H   0  0  0  0  0  0  0  0  0  0  0  0
  128.8245  138.5214  140.9425 H   0  0  0  0  0  0  0  0  0  0  0  0
  131.2917  139.1314  144.1197 H   0  0  0  0  0  0  0  0  0  0  0  0
  129.8482  140.0775  144.4861 H   0  0  0  0  0  0  0  0  0  0  0  0
  131.5354  141.3635  143.2236 H   0  0  0  0  0  0  0  0  0  0  0  0
  131.3593  140.2014  141.8223 H   0  0  0  0  0  0  0  0  0  0  0  0
  127.9132  137.5337  143.9155 H   0  0  0  0  0  0  0  0  0  0  0  0
  129.0856  138.1720  145.1182 H   0  0  0  0  0  0  0  0  0  0  0  0
  131.6046  135.6195  144.1880 H   0  0  0  0  0  0  0  0  0  0  0  0
  130.3332  137.4025  146.2248 H   0  0  0  0  0  0  0  0  0  0  0  0
  131.7392  136.2619  146.5522 H   0  0  0  0  0  0  0  0  0  0  0  0
  131.9181  137.6171  145.4259 H   0  0  0  0  0  0  0  0  0  0  0  0
  130.7322  134.2696  145.9159 H   0  0  0  0  0  0  0  0  0  0  0  0
  129.7319  134.0113  144.4653 H   0  0  0  0  0  0  0  0  0  0  0  0
  129.1026  134.9611  145.8388 H   0  0  0  0  0  0  0  0  0  0  0  0
  131.4396  137.5755  142.4848 H   0  0  0  0  0  0  0  0  0  0  0  0
  130.7525  137.8689  139.9656 H   0  0  0  0  0  0  0  0  0  0  0  0
  130.0383  136.6374  138.0130 H   0  0  0  0  0  0  0  0  0  0  0  0
  128.1874  133.7286  140.4724 H   0  0  0  0  0  0  0  0  0  0  0  0
  128.9129  134.9515  142.4571 H   0  0  0  0  0  0  0  0  0  0  0  0
  129.9562  146.7207  139.1922 H   0  0  0  0  0  0  0  0  0  0  0  0
  130.1636  144.9620  139.4436 H   0  0  0  0  0  0  0  0  0  0  0  0
  129.2150  145.9481  140.6358 H   0  0  0  0  0  0  0  0  0  0  0  0
  1  2  1  0
  2  3  1  0
  3  4  1  0
  3  5  1  0
  5  6  1  0
  6  7  1  0
  7  8  2  0
  7  9  1  0
  9 10  1  0
 10 11  1  0
 11 12  1  0
 12 13  1  0
 13 14  1  0
 12 15  1  0
 15 16  1  0
 16 17  1  0
 17 18  1  0
 17 19  1  0
 16 20  1  0
 20 21  1  0
 21 22  2  0
 22 23  1  0
 23 24  2  0
 24 25  1  0
 24 26  1  0
 26 27  2  0
  5 28  1  0
 28 29  2  0
 28 30  1  0
 30 31  1  0
 14  9  1  0
 27 21  1  0
 20 12  1  0
  1 32  1  0
  1 33  1  0
  1 34  1  0
  2 35  1  0
  2 36  1  0
  3 37  1  1
  4 38  1  0
  4 39  1  0
  4 40  1  0
  5 41  1  6
  6 42  1  0
 10 43  1  0
 10 44  1  0
 11 45  1  0
 11 46  1  0
 13 47  1  0
 13 48  1  0
 14 49  1  0
 14 50  1  0
 15 51  1  0
 15 52  1  0
 17 53  1  0
 18 54  1  0
 18 55  1  0
 18 56  1  0
 19 57  1  0
 19 58  1  0
 19 59  1  0
 20 60  1  1
 22 61  1  0
 23 62  1  0
 26 63  1  0
 27 64  1  0
 31 65  1  0
 31 66  1  0
 31 67  1  0
M  END
>  <docking_score>  (2) 
-6.1619999999999999

$$$$

     RDKit          3D

 67 69  0  0  0  0  0  0  0  0999 V2000
  130.7522  124.2546  140.8508 C   0  0  0  0  0  0  0  0  0  0  0  0
  129.7773  125.0209  141.6785 C   0  0  0  0  0  0  0  0  0  0  0  0
  129.7289  126.5148  141.4105 C   0  0  2  0  0  0  0  0  0  0  0  0
  131.0911  127.1270  141.6999 C   0  0  0  0  0  0  0  0  0  0  0  0
  128.6985  127.1408  142.2462 C   0  0  2  0  0  0  0  0  0  0  0  0
  127.3504  126.5834  142.0883 N   0  0  0  0  0  0  0  0  0  0  0  0
  126.6952  125.8278  143.0945 C   0  0  0  0  0  0  0  0  0  0  0  0
  127.3086  125.6535  144.2064 O   0  0  0  0  0  0  0  0  0  0  0  0
  125.4075  125.2528  142.9435 N   0  0  0  0  0  0  0  0  0  0  0  0
  124.3855  126.0890  142.3889 C   0  0  0  0  0  0  0  0  0  0  0  0
  123.0114  125.5379  142.3314 C   0  0  0  0  0  0  0  0  0  0  0  0
  122.6668  124.4440  143.2559 C   0  0  0  0  0  0  0  0  0  0  0  0
  123.8050  123.9424  144.0797 C   0  0  0  0  0  0  0  0  0  0  0  0
  125.1059  123.9062  143.3226 C   0  0  0  0  0  0  0  0  0  0  0  0
  121.4906  124.7370  144.2354 C   0  0  0  0  0  0  0  0  0  0  0  0
  120.9280  123.5408  143.7677 N   0  0  0  0  0  0  0  0  0  0  0  0
  120.2870  122.5785  144.5078 C   0  0  0  0  0  0  0  0  0  0  0  0
  118.7764  122.8615  144.4988 C   0  0  0  0  0  0  0  0  0  0  0  0
  120.5599  121.1447  144.1672 C   0  0  0  0  0  0  0  0  0  0  0  0
  121.7746  123.3494  142.6765 C   0  0  1  0  0  0  0  0  0  0  0  0
  121.0952  123.6272  141.4012 C   0  0  0  0  0  0  0  0  0  0  0  0
  121.4000  122.8703  140.2598 C   0  0  0  0  0  0  0  0  0  0  0  0
  120.7915  123.0720  139.0478 C   0  0  0  0  0  0  0  0  0  0  0  0
  119.8427  124.0439  138.9016 C   0  0  0  0  0  0  0  0  0  0  0  0
  119.0770  124.2818  137.3293 Cl  0  0  0  0  0  0  0  0  0  0  0  0
  119.5050  124.8161  139.9869 C   0  0  0  0  0  0  0  0  0  0  0  0
  120.1405  124.5865  141.2066 C   0  0  0  0  0  0  0  0  0  0  0  0
  128.6229  128.6398  142.1742 C   0  0  0  0  0  0  0  0  0  0  0  0
  128.2886  129.2348  141.1196 O   0  0  0  0  0  0  0  0  0  0  0  0
  128.9186  129.4509  143.2669 O   0  0  0  0  0  0  0  0  0  0  0  0
  128.9836  130.8739  143.0369 C   0  0  0  0  0  0  0  0  0  0  0  0
  131.0726  124.8233  139.9274 H   0  0  0  0  0  0  0  0  0  0  0  0
  131.5808  123.8462  141.4288 H   0  0  0  0  0  0  0  0  0  0  0  0
  130.1473  123.3949  140.4047 H   0  0  0  0  0  0  0  0  0  0  0  0
  128.7804  124.5420  141.5578 H   0  0  0  0  0  0  0  0  0  0  0  0
  130.0669  124.8943  142.7660 H   0  0  0  0  0  0  0  0  0  0  0  0
  129.5763  126.6635  140.3087 H   0  0  0  0  0  0  0  0  0  0  0  0
  131.7758  126.4250  142.1952 H   0  0  0  0  0  0  0  0  0  0  0  0
  131.0322  128.0520  142.2777 H   0  0  0  0  0  0  0  0  0  0  0  0
  131.5935  127.3193  140.6905 H   0  0  0  0  0  0  0  0  0  0  0  0
  128.9311  126.9855  143.3467 H   0  0  0  0  0  0  0  0  0  0  0  0
  126.8391  126.7471  141.1957 H   0  0  0  0  0  0  0  0  0  0  0  0
  124.3603  127.0571  142.9725 H   0  0  0  0  0  0  0  0  0  0  0  0
  124.7130  126.3664  141.3479 H   0  0  0  0  0  0  0  0  0  0  0  0
  122.3108  126.4046  142.5749 H   0  0  0  0  0  0  0  0  0  0  0  0
  122.7235  125.2711  141.2521 H   0  0  0  0  0  0  0  0  0  0  0  0
  123.5307  122.9418  144.4888 H   0  0  0  0  0  0  0  0  0  0  0  0
  123.9247  124.5815  145.0081 H   0  0  0  0  0  0  0  0  0  0  0  0
  125.8458  123.4192  143.9818 H   0  0  0  0  0  0  0  0  0  0  0  0
  124.9261  123.3111  142.4046 H   0  0  0  0  0  0  0  0  0  0  0  0
  121.0419  125.6969  144.0153 H   0  0  0  0  0  0  0  0  0  0  0  0
  121.8022  124.7092  145.3094 H   0  0  0  0  0  0  0  0  0  0  0  0
  120.5484  122.6925  145.5956 H   0  0  0  0  0  0  0  0  0  0  0  0
  118.6053  123.6511  143.7688 H   0  0  0  0  0  0  0  0  0  0  0  0
  118.2193  121.9241  144.2721 H   0  0  0  0  0  0  0  0  0  0  0  0
  118.4194  123.1965  145.4878 H   0  0  0  0  0  0  0  0  0  0  0  0
  120.5122  120.5683  145.1127 H   0  0  0  0  0  0  0  0  0  0  0  0
  121.5746  120.9860  143.7459 H   0  0  0  0  0  0  0  0  0  0  0  0
  119.8338  120.6963  143.4808 H   0  0  0  0  0  0  0  0  0  0  0  0
  122.3764  122.4192  142.6154 H   0  0  0  0  0  0  0  0  0  0  0  0
  122.1386  122.0854  140.2980 H   0  0  0  0  0  0  0  0  0  0  0  0
  121.0398  122.4651  138.1795 H   0  0  0  0  0  0  0  0  0  0  0  0
  118.7515  125.5970  139.8797 H   0  0  0  0  0  0  0  0  0  0  0  0
  119.8404  125.2183  142.0319 H   0  0  0  0  0  0  0  0  0  0  0  0
  130.0154  131.2451  143.2041 H   0  0  0  0  0  0  0  0  0  0  0  0
  128.6724  131.1513  142.0265 H   0  0  0  0  0  0  0  0  0  0  0  0
  128.3233  131.3963  143.7905 H   0  0  0  0  0  0  0  0  0  0  0  0
  1  2  1  0
  2  3  1  0
  3  4  1  0
  3  5  1  0
  5  6  1  0
  6  7  1  0
  7  8  2  0
  7  9  1  0
  9 10  1  0
 10 11  1  0
 11 12  1  0
 12 13  1  0
 13 14  1  0
 12 15  1  0
 15 16  1  0
 16 17  1  0
 17 18  1  0
 17 19  1  0
 16 20  1  0
 20 21  1  0
 21 22  2  0
 22 23  1  0
 23 24  2  0
 24 25  1  0
 24 26  1  0
 26 27  2  0
  5 28  1  0
 28 29  2  0
 28 30  1  0
 30 31  1  0
 14  9  1  0
 27 21  1  0
 20 12  1  0
  1 32  1  0
  1 33  1  0
  1 34  1  0
  2 35  1  0
  2 36  1  0
  3 37  1  6
  4 38  1  0
  4 39  1  0
  4 40  1  0
  5 41  1  1
  6 42  1  0
 10 43  1  0
 10 44  1  0
 11 45  1  0
 11 46  1  0
 13 47  1  0
 13 48  1  0
 14 49  1  0
 14 50  1  0
 15 51  1  0
 15 52  1  0
 17 53  1  0
 18 54  1  0
 18 55  1  0
 18 56  1  0
 19 57  1  0
 19 58  1  0
 19 59  1  0
 20 60  1  6
 22 61  1  0
 23 62  1  0
 26 63  1  0
 27 64  1  0
 31 65  1  0
 31 66  1  0
 31 67  1  0
M  END
>  <docking_score>  (3) 
-6.1029999999999998

$$$$
