
     RDKit          3D

 67 69  0  0  0  0  0  0  0  0999 V2000
  135.4519  129.9726  145.1788 C   0  0  0  0  0  0  0  0  0  0  0  0
  136.1431  128.6217  145.1879 C   0  0  0  0  0  0  0  0  0  0  0  0
  137.2330  128.5404  144.1521 C   0  0  2  0  0  0  0  0  0  0  0  0
  137.6083  127.1234  143.8228 C   0  0  0  0  0  0  0  0  0  0  0  0
  138.4066  129.3764  144.3708 C   0  0  2  0  0  0  0  0  0  0  0  0
  139.0305  130.0121  143.2550 N   0  0  0  0  0  0  0  0  0  0  0  0
  138.7475  131.2901  142.7715 C   0  0  0  0  0  0  0  0  0  0  0  0
  137.8446  131.8905  143.4205 O   0  0  0  0  0  0  0  0  0  0  0  0
  139.3948  131.8949  141.6529 N   0  0  0  0  0  0  0  0  0  0  0  0
  140.7617  132.3442  141.8531 C   0  0  0  0  0  0  0  0  0  0  0  0
  141.6228  132.2091  140.6224 C   0  0  0  0  0  0  0  0  0  0  0  0
  140.8165  132.7593  139.4659 C   0  0  0  0  0  0  0  0  0  0  0  0
  139.6706  131.8386  139.2366 C   0  0  0  0  0  0  0  0  0  0  0  0
  138.6878  132.0324  140.4108 C   0  0  0  0  0  0  0  0  0  0  0  0
  140.4006  134.1830  139.6740 C   0  0  0  0  0  0  0  0  0  0  0  0
  141.3271  134.6169  138.7193 N   0  0  0  0  0  0  0  0  0  0  0  0
  142.4398  135.4172  139.1177 C   0  0  0  0  0  0  0  0  0  0  0  0
  142.2424  136.2265  140.3375 C   0  0  0  0  0  0  0  0  0  0  0  0
  142.8474  136.2866  137.9511 C   0  0  0  0  0  0  0  0  0  0  0  0
  141.6112  133.2599  138.3096 C   0  0  2  0  0  0  0  0  0  0  0  0
  141.0471  132.9964  136.9570 C   0  0  0  0  0  0  0  0  0  0  0  0
  139.8043  133.5028  136.5803 C   0  0  0  0  0  0  0  0  0  0  0  0
  139.2654  133.3065  135.3257 C   0  0  0  0  0  0  0  0  0  0  0  0
  139.9704  132.5887  134.4101 C   0  0  0  0  0  0  0  0  0  0  0  0
  139.2661  132.3494  132.8177 Cl  0  0  0  0  0  0  0  0  0  0  0  0
  141.2054  132.0627  134.7247 C   0  0  0  0  0  0  0  0  0  0  0  0
  141.7077  132.2800  135.9833 C   0  0  0  0  0  0  0  0  0  0  0  0
  139.5042  128.6824  145.1335 C   0  0  0  0  0  0  0  0  0  0  0  0
  139.4839  128.5085  146.3563 O   0  0  0  0  0  0  0  0  0  0  0  0
  140.6046  128.2083  144.4281 O   0  0  0  0  0  0  0  0  0  0  0  0
  141.3826  127.1102  144.9092 C   0  0  0  0  0  0  0  0  0  0  0  0
  136.2433  130.7525  145.1641 H   0  0  0  0  0  0  0  0  0  0  0  0
  134.8290  130.0481  144.2784 H   0  0  0  0  0  0  0  0  0  0  0  0
  134.8776  130.1417  146.1166 H   0  0  0  0  0  0  0  0  0  0  0  0
  136.4678  128.4377  146.2044 H   0  0  0  0  0  0  0  0  0  0  0  0
  135.3452  127.8904  144.8622 H   0  0  0  0  0  0  0  0  0  0  0  0
  136.7386  128.9388  143.2091 H   0  0  0  0  0  0  0  0  0  0  0  0
  137.5860  126.9145  142.7345 H   0  0  0  0  0  0  0  0  0  0  0  0
  138.6118  126.8503  144.2649 H   0  0  0  0  0  0  0  0  0  0  0  0
  136.9059  126.3787  144.2771 H   0  0  0  0  0  0  0  0  0  0  0  0
  138.1044  130.2082  145.0495 H   0  0  0  0  0  0  0  0  0  0  0  0
  139.7574  129.4324  142.7835 H   0  0  0  0  0  0  0  0  0  0  0  0
  140.8081  133.3582  142.3069 H   0  0  0  0  0  0  0  0  0  0  0  0
  141.2354  131.6733  142.6248 H   0  0  0  0  0  0  0  0  0  0  0  0
  141.7855  131.1172  140.4510 H   0  0  0  0  0  0  0  0  0  0  0  0
  142.5750  132.6995  140.7865 H   0  0  0  0  0  0  0  0  0  0  0  0
  139.1492  132.0419  138.2966 H   0  0  0  0  0  0  0  0  0  0  0  0
  139.9929  130.7744  139.3215 H   0  0  0  0  0  0  0  0  0  0  0  0
  138.2205  133.0139  140.3215 H   0  0  0  0  0  0  0  0  0  0  0  0
  137.9198  131.2410  140.2721 H   0  0  0  0  0  0  0  0  0  0  0  0
  140.4434  134.5530  140.6980 H   0  0  0  0  0  0  0  0  0  0  0  0
  139.3508  134.3309  139.2834 H   0  0  0  0  0  0  0  0  0  0  0  0
  143.3284  134.7432  139.2951 H   0  0  0  0  0  0  0  0  0  0  0  0
  142.7262  135.6735  141.1967 H   0  0  0  0  0  0  0  0  0  0  0  0
  142.7162  137.2251  140.3284 H   0  0  0  0  0  0  0  0  0  0  0  0
  141.1597  136.2620  140.5984 H   0  0  0  0  0  0  0  0  0  0  0  0
  143.9535  136.5113  137.9864 H   0  0  0  0  0  0  0  0  0  0  0  0
  142.5708  135.8509  136.9755 H   0  0  0  0  0  0  0  0  0  0  0  0
  142.3602  137.2952  137.9884 H   0  0  0  0  0  0  0  0  0  0  0  0
  142.6964  132.9953  138.3260 H   0  0  0  0  0  0  0  0  0  0  0  0
  139.2471  134.0647  137.3060 H   0  0  0  0  0  0  0  0  0  0  0  0
  138.2861  133.7144  135.0516 H   0  0  0  0  0  0  0  0  0  0  0  0
  141.7336  131.4961  133.9628 H   0  0  0  0  0  0  0  0  0  0  0  0
  142.6905  131.8687  136.2202 H   0  0  0  0  0  0  0  0  0  0  0  0
  140.8992  126.1544  144.6595 H   0  0  0  0  0  0  0  0  0  0  0  0
  141.5801  127.2028  145.9955 H   0  0  0  0  0  0  0  0  0  0  0  0
  142.3325  127.1520  144.3239 H   0  0  0  0  0  0  0  0  0  0  0  0
  1  2  1  0
  2  3  1  0
  3  4  1  0
  3  5  1  0
  5  6  1  0
  6  7  1  0
  7  8  2  0
  7  9  1  0
  9 10  1  0
 10 11  1  0
 11 12  1  0
 12 13  1  0
 13 14  1  0
 12 15  1  0
 15 16  1  0
 16 17  1  0
 17 18  1  0
 17 19  1  0
 16 20  1  0
 20 21  1  0
 21 22  2  0
 22 23  1  0
 23 24  2  0
 24 25  1  0
 24 26  1  0
 26 27  2  0
  5 28  1  0
 28 29  2  0
 28 30  1  0
 30 31  1  0
 14  9  1  0
 27 21  1  0
 20 12  1  0
  1 32  1  0
  1 33  1  0
  1 34  1  0
  2 35  1  0
  2 36  1  0
  3 37  1  6
  4 38  1  0
  4 39  1  0
  4 40  1  0
  5 41  1  1
  6 42  1  0
 10 43  1  0
 10 44  1  0
 11 45  1  0
 11 46  1  0
 13 47  1  0
 13 48  1  0
 14 49  1  0
 14 50  1  0
 15 51  1  0
 15 52  1  0
 17 53  1  0
 18 54  1  0
 18 55  1  0
 18 56  1  0
 19 57  1  0
 19 58  1  0
 19 59  1  0
 20 60  1  6
 22 61  1  0
 23 62  1  0
 26 63  1  0
 27 64  1  0
 31 65  1  0
 31 66  1  0
 31 67  1  0
M  END
>  <docking_score>  (1) 
-6.5019999999999998

$$$$

     RDKit          3D

 67 69  0  0  0  0  0  0  0  0999 V2000
  132.3969  133.5444  135.7573 C   0  0  0  0  0  0  0  0  0  0  0  0
  133.2919  132.3397  135.9822 C   0  0  0  0  0  0  0  0  0  0  0  0
  134.5968  132.7212  136.6293 C   0  0  2  0  0  0  0  0  0  0  0  0
  135.7655  132.5734  135.6969 C   0  0  0  0  0  0  0  0  0  0  0  0
  134.8706  132.1437  137.9391 C   0  0  2  0  0  0  0  0  0  0  0  0
  134.2706  130.8976  138.2937 N   0  0  0  0  0  0  0  0  0  0  0  0
  134.9009  129.6526  138.3000 C   0  0  0  0  0  0  0  0  0  0  0  0
  136.1137  129.6954  137.9475 O   0  0  0  0  0  0  0  0  0  0  0  0
  134.2686  128.4263  138.6636 N   0  0  0  0  0  0  0  0  0  0  0  0
  132.8690  128.2804  138.3024 C   0  0  0  0  0  0  0  0  0  0  0  0
  132.4853  126.8643  137.9533 C   0  0  0  0  0  0  0  0  0  0  0  0
  133.0771  125.9768  139.0268 C   0  0  0  0  0  0  0  0  0  0  0  0
  134.5572  126.0208  138.8830 C   0  0  0  0  0  0  0  0  0  0  0  0
  135.0199  127.4159  139.3537 C   0  0  0  0  0  0  0  0  0  0  0  0
  132.6042  126.3355  140.4019 C   0  0  0  0  0  0  0  0  0  0  0  0
  131.8037  125.1888  140.4503 N   0  0  0  0  0  0  0  0  0  0  0  0
  130.3820  125.3125  140.4814 C   0  0  0  0  0  0  0  0  0  0  0  0
  129.8631  126.6565  140.8076 C   0  0  0  0  0  0  0  0  0  0  0  0
  129.8310  124.2743  141.4309 C   0  0  0  0  0  0  0  0  0  0  0  0
  132.3884  124.6721  139.2333 C   0  0  2  0  0  0  0  0  0  0  0  0
  133.2622  123.5041  139.5316 C   0  0  0  0  0  0  0  0  0  0  0  0
  134.6345  123.5470  139.2908 C   0  0  0  0  0  0  0  0  0  0  0  0
  135.4790  122.4967  139.5850 C   0  0  0  0  0  0  0  0  0  0  0  0
  134.9587  121.3660  140.1341 C   0  0  0  0  0  0  0  0  0  0  0  0
  136.0513  120.0391  140.5009 Cl  0  0  0  0  0  0  0  0  0  0  0  0
  133.6087  121.2649  140.3952 C   0  0  0  0  0  0  0  0  0  0  0  0
  132.8013  122.3314  140.0886 C   0  0  0  0  0  0  0  0  0  0  0  0
  134.5970  133.0876  139.0803 C   0  0  0  0  0  0  0  0  0  0  0  0
  134.0215  134.1726  138.9483 O   0  0  0  0  0  0  0  0  0  0  0  0
  135.0123  132.7235  140.3563 O   0  0  0  0  0  0  0  0  0  0  0  0
  136.3912  132.7583  140.7303 C   0  0  0  0  0  0  0  0  0  0  0  0
  131.6570  133.5700  136.5859 H   0  0  0  0  0  0  0  0  0  0  0  0
  133.0123  134.4529  135.7709 H   0  0  0  0  0  0  0  0  0  0  0  0
  131.8017  133.4399  134.8231 H   0  0  0  0  0  0  0  0  0  0  0  0
  132.7097  131.6091  136.5298 H   0  0  0  0  0  0  0  0  0  0  0  0
  133.5506  131.9781  134.9430 H   0  0  0  0  0  0  0  0  0  0  0  0
  134.4967  133.8410  136.7977 H   0  0  0  0  0  0  0  0  0  0  0  0
  136.3533  131.6530  135.8866 H   0  0  0  0  0  0  0  0  0  0  0  0
  135.4390  132.6272  134.6164 H   0  0  0  0  0  0  0  0  0  0  0  0
  136.4996  133.4135  135.7952 H   0  0  0  0  0  0  0  0  0  0  0  0
  135.9700  131.9678  138.0053 H   0  0  0  0  0  0  0  0  0  0  0  0
  133.2662  130.9677  138.5636 H   0  0  0  0  0  0  0  0  0  0  0  0
  132.1914  128.7418  139.0535 H   0  0  0  0  0  0  0  0  0  0  0  0
  132.6912  128.8786  137.3642 H   0  0  0  0  0  0  0  0  0  0  0  0
  132.9779  126.6184  136.9812 H   0  0  0  0  0  0  0  0  0  0  0  0
  131.4094  126.7926  137.8465 H   0  0  0  0  0  0  0  0  0  0  0  0
  135.0609  125.2561  139.4817 H   0  0  0  0  0  0  0  0  0  0  0  0
  134.8532  125.9818  137.8085 H   0  0  0  0  0  0  0  0  0  0  0  0
  134.8879  127.4855  140.4343 H   0  0  0  0  0  0  0  0  0  0  0  0
  136.1033  127.4538  139.1084 H   0  0  0  0  0  0  0  0  0  0  0  0
  132.1640  127.3257  140.5174 H   0  0  0  0  0  0  0  0  0  0  0  0
  133.4594  126.2364  141.1335 H   0  0  0  0  0  0  0  0  0  0  0  0
  129.9689  125.0228  139.4712 H   0  0  0  0  0  0  0  0  0  0  0  0
  130.4739  127.4092  140.2258 H   0  0  0  0  0  0  0  0  0  0  0  0
  128.8133  126.8450  140.5178 H   0  0  0  0  0  0  0  0  0  0  0  0
  130.0675  126.8931  141.8770 H   0  0  0  0  0  0  0  0  0  0  0  0
  130.6479  123.8652  142.0947 H   0  0  0  0  0  0  0  0  0  0  0  0
  128.9906  124.6527  142.0380 H   0  0  0  0  0  0  0  0  0  0  0  0
  129.4402  123.3745  140.8889 H   0  0  0  0  0  0  0  0  0  0  0  0
  131.6422  124.3970  138.4488 H   0  0  0  0  0  0  0  0  0  0  0  0
  135.0425  124.4383  138.8526 H   0  0  0  0  0  0  0  0  0  0  0  0
  136.5552  122.5529  139.3870 H   0  0  0  0  0  0  0  0  0  0  0  0
  133.2364  120.3435  140.8344 H   0  0  0  0  0  0  0  0  0  0  0  0
  131.7356  122.2464  140.3082 H   0  0  0  0  0  0  0  0  0  0  0  0
  136.9058  131.8450  140.3977 H   0  0  0  0  0  0  0  0  0  0  0  0
  136.5082  132.9260  141.8193 H   0  0  0  0  0  0  0  0  0  0  0  0
  136.8271  133.6035  140.1453 H   0  0  0  0  0  0  0  0  0  0  0  0
  1  2  1  0
  2  3  1  0
  3  4  1  0
  3  5  1  0
  5  6  1  0
  6  7  1  0
  7  8  2  0
  7  9  1  0
  9 10  1  0
 10 11  1  0
 11 12  1  0
 12 13  1  0
 13 14  1  0
 12 15  1  0
 15 16  1  0
 16 17  1  0
 17 18  1  0
 17 19  1  0
 16 20  1  0
 20 21  1  0
 21 22  2  0
 22 23  1  0
 23 24  2  0
 24 25  1  0
 24 26  1  0
 26 27  2  0
  5 28  1  0
 28 29  2  0
 28 30  1  0
 30 31  1  0
 14  9  1  0
 27 21  1  0
 20 12  1  0
  1 32  1  0
  1 33  1  0
  1 34  1  0
  2 35  1  0
  2 36  1  0
  3 37  1  1
  4 38  1  0
  4 39  1  0
  4 40  1  0
  5 41  1  6
  6 42  1  0
 10 43  1  0
 10 44  1  0
 11 45  1  0
 11 46  1  0
 13 47  1  0
 13 48  1  0
 14 49  1  0
 14 50  1  0
 15 51  1  0
 15 52  1  0
 17 53  1  0
 18 54  1  0
 18 55  1  0
 18 56  1  0
 19 57  1  0
 19 58  1  0
 19 59  1  0
 20 60  1  6
 22 61  1  0
 23 62  1  0
 26 63  1  0
 27 64  1  0
 31 65  1  0
 31 66  1  0
 31 67  1  0
M  END
>  <docking_score>  (2) 
-6.149

$$$$

     RDKit          3D

 67 69  0  0  0  0  0  0  0  0999 V2000
  140.7638  127.7392  144.7017 C   0  0  0  0  0  0  0  0  0  0  0  0
  140.2148  128.9245  143.9294 C   0  0  0  0  0  0  0  0  0  0  0  0
  138.7109  128.9803  143.9785 C   0  0  2  0  0  0  0  0  0  0  0  0
  138.0859  127.6145  144.0103 C   0  0  0  0  0  0  0  0  0  0  0  0
  138.0572  129.8545  143.0128 C   0  0  2  0  0  0  0  0  0  0  0  0
  138.8556  130.6590  142.1446 N   0  0  0  0  0  0  0  0  0  0  0  0
  138.5936  130.9302  140.8011 C   0  0  0  0  0  0  0  0  0  0  0  0
  137.5397  130.3833  140.3686 O   0  0  0  0  0  0  0  0  0  0  0  0
  139.4148  131.7427  139.9635 N   0  0  0  0  0  0  0  0  0  0  0  0
  139.0436  131.8199  138.5612 C   0  0  0  0  0  0  0  0  0  0  0  0
  139.3356  133.1615  137.9374 C   0  0  0  0  0  0  0  0  0  0  0  0
  140.7376  133.5418  138.3621 C   0  0  0  0  0  0  0  0  0  0  0  0
  140.7115  133.7964  139.8276 C   0  0  0  0  0  0  0  0  0  0  0  0
  140.5436  132.4298  140.5250 C   0  0  0  0  0  0  0  0  0  0  0  0
  141.7622  132.5282  137.9546 C   0  0  0  0  0  0  0  0  0  0  0  0
  142.2532  133.3885  136.9663 N   0  0  0  0  0  0  0  0  0  0  0  0
  142.1087  133.0472  135.5878 C   0  0  0  0  0  0  0  0  0  0  0  0
  141.4882  131.7349  135.3148 C   0  0  0  0  0  0  0  0  0  0  0  0
  143.4610  133.1557  134.9226 C   0  0  0  0  0  0  0  0  0  0  0  0
  141.4493  134.4859  137.4558 C   0  0  2  0  0  0  0  0  0  0  0  0
  142.3101  135.5086  138.1116 C   0  0  0  0  0  0  0  0  0  0  0  0
  143.5612  135.8405  137.5943 C   0  0  0  0  0  0  0  0  0  0  0  0
  144.3710  136.8056  138.1562 C   0  0  0  0  0  0  0  0  0  0  0  0
  143.9380  137.4670  139.2633 C   0  0  0  0  0  0  0  0  0  0  0  0
  144.9850  138.6925  139.9643 Cl  0  0  0  0  0  0  0  0  0  0  0  0
  142.7095  137.1821  139.8203 C   0  0  0  0  0  0  0  0  0  0  0  0
  141.9327  136.2157  139.2321 C   0  0  0  0  0  0  0  0  0  0  0  0
  137.0393  130.7765  143.6307 C   0  0  0  0  0  0  0  0  0  0  0  0
  137.2076  131.9933  143.7605 O   0  0  0  0  0  0  0  0  0  0  0  0
  135.8410  130.2346  144.0820 O   0  0  0  0  0  0  0  0  0  0  0  0
  134.6011  130.5201  143.4312 C   0  0  0  0  0  0  0  0  0  0  0  0
  140.2733  127.7343  145.6988 H   0  0  0  0  0  0  0  0  0  0  0  0
  140.5238  126.8171  144.1572 H   0  0  0  0  0  0  0  0  0  0  0  0
  141.8526  127.8524  144.9005 H   0  0  0  0  0  0  0  0  0  0  0  0
  140.7147  129.8082  144.3059 H   0  0  0  0  0  0  0  0  0  0  0  0
  140.4863  128.7143  142.8526 H   0  0  0  0  0  0  0  0  0  0  0  0
  138.4911  129.4264  145.0008 H   0  0  0  0  0  0  0  0  0  0  0  0
  136.9862  127.6415  143.8744 H   0  0  0  0  0  0  0  0  0  0  0  0
  138.5679  126.9239  143.2567 H   0  0  0  0  0  0  0  0  0  0  0  0
  138.2461  127.0939  144.9889 H   0  0  0  0  0  0  0  0  0  0  0  0
  137.4477  129.2107  142.3360 H   0  0  0  0  0  0  0  0  0  0  0  0
  139.7063  131.0597  142.5945 H   0  0  0  0  0  0  0  0  0  0  0  0
  139.4498  130.9690  137.9719 H   0  0  0  0  0  0  0  0  0  0  0  0
  137.9257  131.6954  138.4933 H   0  0  0  0  0  0  0  0  0  0  0  0
  138.6210  133.8957  138.3827 H   0  0  0  0  0  0  0  0  0  0  0  0
  139.1843  133.1075  136.8659 H   0  0  0  0  0  0  0  0  0  0  0  0
  141.6285  134.2717  140.1884 H   0  0  0  0  0  0  0  0  0  0  0  0
  139.7968  134.3655  140.1157 H   0  0  0  0  0  0  0  0  0  0  0  0
  141.4635  131.8563  140.4037 H   0  0  0  0  0  0  0  0  0  0  0  0
  140.3973  132.6750  141.5992 H   0  0  0  0  0  0  0  0  0  0  0  0
  141.3852  131.5397  137.6935 H   0  0  0  0  0  0  0  0  0  0  0  0
  142.5282  132.4135  138.7772 H   0  0  0  0  0  0  0  0  0  0  0  0
  141.4779  133.8353  135.0816 H   0  0  0  0  0  0  0  0  0  0  0  0
  141.7109  131.4687  134.2388 H   0  0  0  0  0  0  0  0  0  0  0  0
  141.8781  130.8903  135.9118 H   0  0  0  0  0  0  0  0  0  0  0  0
  140.3784  131.8229  135.3601 H   0  0  0  0  0  0  0  0  0  0  0  0
  143.9752  132.1507  134.8948 H   0  0  0  0  0  0  0  0  0  0  0  0
  143.4061  133.5917  133.9102 H   0  0  0  0  0  0  0  0  0  0  0  0
  144.1634  133.8086  135.5027 H   0  0  0  0  0  0  0  0  0  0  0  0
  140.8129  134.9697  136.6755 H   0  0  0  0  0  0  0  0  0  0  0  0
  143.9034  135.3137  136.7235 H   0  0  0  0  0  0  0  0  0  0  0  0
  145.3513  137.0501  137.7321 H   0  0  0  0  0  0  0  0  0  0  0  0
  142.4037  137.7349  140.7043 H   0  0  0  0  0  0  0  0  0  0  0  0
  140.9574  136.0040  139.6737 H   0  0  0  0  0  0  0  0  0  0  0  0
  134.1930  129.6136  142.9608 H   0  0  0  0  0  0  0  0  0  0  0  0
  134.7098  131.3501  142.7054 H   0  0  0  0  0  0  0  0  0  0  0  0
  133.9005  130.7972  144.2553 H   0  0  0  0  0  0  0  0  0  0  0  0
  1  2  1  0
  2  3  1  0
  3  4  1  0
  3  5  1  0
  5  6  1  0
  6  7  1  0
  7  8  2  0
  7  9  1  0
  9 10  1  0
 10 11  1  0
 11 12  1  0
 12 13  1  0
 13 14  1  0
 12 15  1  0
 15 16  1  0
 16 17  1  0
 17 18  1  0
 17 19  1  0
 16 20  1  0
 20 21  1  0
 21 22  2  0
 22 23  1  0
 23 24  2  0
 24 25  1  0
 24 26  1  0
 26 27  2  0
  5 28  1  0
 28 29  2  0
 28 30  1  0
 30 31  1  0
 14  9  1  0
 27 21  1  0
 20 12  1  0
  1 32  1  0
  1 33  1  0
  1 34  1  0
  2 35  1  0
  2 36  1  0
  3 37  1  1
  4 38  1  0
  4 39  1  0
  4 40  1  0
  5 41  1  6
  6 42  1  0
 10 43  1  0
 10 44  1  0
 11 45  1  0
 11 46  1  0
 13 47  1  0
 13 48  1  0
 14 49  1  0
 14 50  1  0
 15 51  1  0
 15 52  1  0
 17 53  1  0
 18 54  1  0
 18 55  1  0
 18 56  1  0
 19 57  1  0
 19 58  1  0
 19 59  1  0
 20 60  1  6
 22 61  1  0
 23 62  1  0
 26 63  1  0
 27 64  1  0
 31 65  1  0
 31 66  1  0
 31 67  1  0
M  END
>  <docking_score>  (3) 
-5.8159999999999998

$$$$
