
     RDKit          3D

 54 58  0  0  0  0  0  0  0  0999 V2000
  128.2567  127.1159  142.7945 O   0  0  0  0  0  0  0  0  0  0  0  0
  128.6143  125.9624  142.4734 C   0  0  0  0  0  0  0  0  0  0  0  0
  127.6949  124.8994  142.5990 N   0  0  0  0  0  0  0  0  0  0  0  0
  126.3595  124.9709  143.0647 C   0  0  0  0  0  0  0  0  0  0  0  0
  125.4171  125.7953  142.5540 C   0  0  0  0  0  0  0  0  0  0  0  0
  124.1190  125.8005  143.0662 C   0  0  0  0  0  0  0  0  0  0  0  0
  123.1885  126.6253  142.5502 F   0  0  0  0  0  0  0  0  0  0  0  0
  123.7674  124.9755  144.0941 C   0  0  0  0  0  0  0  0  0  0  0  0
  124.7122  124.1323  144.6243 C   0  0  0  0  0  0  0  0  0  0  0  0
  124.4280  123.2741  145.6612 F   0  0  0  0  0  0  0  0  0  0  0  0
  125.9794  124.1339  144.1170 C   0  0  0  0  0  0  0  0  0  0  0  0
  129.9424  125.7766  141.9929 N   0  0  0  0  0  0  0  0  0  0  0  0
  130.3365  124.4538  141.6030 C   0  0  0  0  0  0  0  0  0  0  0  0
  131.8849  124.4949  141.5714 C   0  0  0  0  0  0  0  0  0  0  0  0
  132.2356  125.4506  140.4776 C   0  0  0  0  0  0  0  0  0  0  0  0
  131.8196  126.8602  140.8308 C   0  0  0  0  0  0  0  0  0  0  0  0
  130.8035  126.9276  141.9274 C   0  0  0  0  0  0  0  0  0  0  0  0
  131.7006  125.0491  139.1103 C   0  0  0  0  0  0  0  0  0  0  0  0
  133.0156  125.2452  138.6012 N   0  0  0  0  0  0  0  0  0  0  0  0
  133.2260  126.3256  137.7038 C   0  0  0  0  0  0  0  0  0  0  0  0
  133.7082  125.9226  136.3246 C   0  0  0  0  0  0  0  0  0  0  0  0
  134.5073  126.8138  137.2276 C   0  0  0  0  0  0  0  0  0  0  0  0
  133.5998  125.3301  139.9160 C   0  0  2  0  0  0  0  0  0  0  0  0
  134.4023  124.1312  140.1884 C   0  0  0  0  0  0  0  0  0  0  0  0
  134.0099  122.8987  139.6432 C   0  0  0  0  0  0  0  0  0  0  0  0
  134.6827  121.7354  139.8006 C   0  0  0  0  0  0  0  0  0  0  0  0
  135.8407  121.7240  140.5437 C   0  0  0  0  0  0  0  0  0  0  0  0
  136.6942  120.2080  140.7339 Cl  0  0  0  0  0  0  0  0  0  0  0  0
  136.2764  122.8995  141.1027 C   0  0  0  0  0  0  0  0  0  0  0  0
  135.5654  124.0910  140.9270 C   0  0  0  0  0  0  0  0  0  0  0  0
  128.0991  123.9508  142.2956 H   0  0  0  0  0  0  0  0  0  0  0  0
  125.5873  126.4804  141.7548 H   0  0  0  0  0  0  0  0  0  0  0  0
  122.7477  124.9754  144.5009 H   0  0  0  0  0  0  0  0  0  0  0  0
  126.7185  123.4834  144.5217 H   0  0  0  0  0  0  0  0  0  0  0  0
  130.0891  123.6640  142.3410 H   0  0  0  0  0  0  0  0  0  0  0  0
  130.0136  124.1507  140.6017 H   0  0  0  0  0  0  0  0  0  0  0  0
  132.1913  124.9756  142.5470 H   0  0  0  0  0  0  0  0  0  0  0  0
  132.2876  123.4979  141.4172 H   0  0  0  0  0  0  0  0  0  0  0  0
  131.4923  127.3697  139.9028 H   0  0  0  0  0  0  0  0  0  0  0  0
  132.7346  127.3955  141.1682 H   0  0  0  0  0  0  0  0  0  0  0  0
  130.1865  127.8354  141.7703 H   0  0  0  0  0  0  0  0  0  0  0  0
  131.2741  127.0445  142.9284 H   0  0  0  0  0  0  0  0  0  0  0  0
  131.4118  123.9576  139.1540 H   0  0  0  0  0  0  0  0  0  0  0  0
  130.8882  125.6665  138.7189 H   0  0  0  0  0  0  0  0  0  0  0  0
  132.3544  127.0482  137.6922 H   0  0  0  0  0  0  0  0  0  0  0  0
  133.2288  126.3070  135.4263 H   0  0  0  0  0  0  0  0  0  0  0  0
  134.1492  124.9084  136.1951 H   0  0  0  0  0  0  0  0  0  0  0  0
  135.4943  126.4994  137.5845 H   0  0  0  0  0  0  0  0  0  0  0  0
  134.5339  127.8826  136.8592 H   0  0  0  0  0  0  0  0  0  0  0  0
  134.2014  126.2318  140.1319 H   0  0  0  0  0  0  0  0  0  0  0  0
  133.1027  122.9081  139.0622 H   0  0  0  0  0  0  0  0  0  0  0  0
  134.2865  120.8368  139.3323 H   0  0  0  0  0  0  0  0  0  0  0  0
  137.1846  122.9104  141.6904 H   0  0  0  0  0  0  0  0  0  0  0  0
  135.9314  125.0140  141.3610 H   0  0  0  0  0  0  0  0  0  0  0  0
  1  2  2  0
  2  3  1  0
  3  4  1  0
  4  5  2  0
  5  6  1  0
  6  7  1  0
  6  8  2  0
  8  9  1  0
  9 10  1  0
  9 11  2  0
  2 12  1  0
 12 13  1  0
 13 14  1  0
 14 15  1  0
 15 16  1  0
 16 17  1  0
 15 18  1  0
 18 19  1  0
 19 20  1  0
 20 21  1  0
 21 22  1  0
 19 23  1  0
 23 24  1  0
 24 25  2  0
 25 26  1  0
 26 27  2  0
 27 28  1  0
 27 29  1  0
 29 30  2  0
 11  4  1  0
 17 12  1  0
 22 20  1  0
 30 24  1  0
 23 15  1  0
  3 31  1  0
  5 32  1  0
  8 33  1  0
 11 34  1  0
 13 35  1  0
 13 36  1  0
 14 37  1  0
 14 38  1  0
 16 39  1  0
 16 40  1  0
 17 41  1  0
 17 42  1  0
 18 43  1  0
 18 44  1  0
 20 45  1  0
 21 46  1  0
 21 47  1  0
 22 48  1  0
 22 49  1  0
 23 50  1  6
 25 51  1  0
 26 52  1  0
 29 53  1  0
 30 54  1  0
M  END
>  <docking_score>  (1) 
-9.1039999999999992

$$$$

     RDKit          3D

 54 58  0  0  0  0  0  0  0  0999 V2000
  133.7803  125.7549  140.6756 O   0  0  0  0  0  0  0  0  0  0  0  0
  133.9550  125.7272  139.4387 C   0  0  0  0  0  0  0  0  0  0  0  0
  134.4914  124.5637  138.8475 N   0  0  0  0  0  0  0  0  0  0  0  0
  134.8778  123.3690  139.5024 C   0  0  0  0  0  0  0  0  0  0  0  0
  136.1329  123.1068  139.9321 C   0  0  0  0  0  0  0  0  0  0  0  0
  136.4310  121.9053  140.5762 C   0  0  0  0  0  0  0  0  0  0  0  0
  137.6841  121.6545  140.9999 F   0  0  0  0  0  0  0  0  0  0  0  0
  135.4657  120.9652  140.7887 C   0  0  0  0  0  0  0  0  0  0  0  0
  134.1862  121.2155  140.3588 C   0  0  0  0  0  0  0  0  0  0  0  0
  133.1636  120.3132  140.5395 F   0  0  0  0  0  0  0  0  0  0  0  0
  133.9037  122.3935  139.7297 C   0  0  0  0  0  0  0  0  0  0  0  0
  133.6013  126.8805  138.6810 N   0  0  0  0  0  0  0  0  0  0  0  0
  133.0655  128.0089  139.3858 C   0  0  0  0  0  0  0  0  0  0  0  0
  132.3866  128.8725  138.2935 C   0  0  0  0  0  0  0  0  0  0  0  0
  133.4956  129.3344  137.4048 C   0  0  0  0  0  0  0  0  0  0  0  0
  134.1108  128.1760  136.6535 C   0  0  0  0  0  0  0  0  0  0  0  0
  133.8056  126.8412  137.2570 C   0  0  0  0  0  0  0  0  0  0  0  0
  134.5627  130.1504  138.1206 C   0  0  0  0  0  0  0  0  0  0  0  0
  134.4212  131.1286  137.0960 N   0  0  0  0  0  0  0  0  0  0  0  0
  135.5106  131.3195  136.2050 C   0  0  0  0  0  0  0  0  0  0  0  0
  136.6911  132.0655  136.7940 C   0  0  0  0  0  0  0  0  0  0  0  0
  135.9270  132.5758  135.6091 C   0  0  0  0  0  0  0  0  0  0  0  0
  133.2166  130.5303  136.5783 C   0  0  2  0  0  0  0  0  0  0  0  0
  132.0601  131.3810  136.8851 C   0  0  0  0  0  0  0  0  0  0  0  0
  130.7916  131.0231  136.4021 C   0  0  0  0  0  0  0  0  0  0  0  0
  129.6514  131.7104  136.6429 C   0  0  0  0  0  0  0  0  0  0  0  0
  129.7030  132.8486  137.4143 C   0  0  0  0  0  0  0  0  0  0  0  0
  128.2157  133.7217  137.7123 Cl  0  0  0  0  0  0  0  0  0  0  0  0
  130.9159  133.2500  137.9161 C   0  0  0  0  0  0  0  0  0  0  0  0
  132.0825  132.5241  137.6550 C   0  0  0  0  0  0  0  0  0  0  0  0
  134.6000  124.6410  137.7810 H   0  0  0  0  0  0  0  0  0  0  0  0
  136.9595  123.7698  139.8131 H   0  0  0  0  0  0  0  0  0  0  0  0
  135.6947  120.0184  141.2951 H   0  0  0  0  0  0  0  0  0  0  0  0
  132.9143  122.5963  139.3930 H   0  0  0  0  0  0  0  0  0  0  0  0
  132.2521  127.7621  140.0980 H   0  0  0  0  0  0  0  0  0  0  0  0
  133.8105  128.6492  139.8693 H   0  0  0  0  0  0  0  0  0  0  0  0
  131.7543  128.1534  137.6936 H   0  0  0  0  0  0  0  0  0  0  0  0
  131.8300  129.6881  138.7464 H   0  0  0  0  0  0  0  0  0  0  0  0
  135.1971  128.3673  136.5475 H   0  0  0  0  0  0  0  0  0  0  0  0
  133.6935  128.1975  135.6224 H   0  0  0  0  0  0  0  0  0  0  0  0
  134.6492  126.1587  137.0291 H   0  0  0  0  0  0  0  0  0  0  0  0
  132.9017  126.3744  136.8073 H   0  0  0  0  0  0  0  0  0  0  0  0
  134.1365  130.4940  139.1089 H   0  0  0  0  0  0  0  0  0  0  0  0
  135.5303  129.6584  138.2473 H   0  0  0  0  0  0  0  0  0  0  0  0
  135.7937  130.3656  135.6648 H   0  0  0  0  0  0  0  0  0  0  0  0
  137.7052  131.6830  136.6942 H   0  0  0  0  0  0  0  0  0  0  0  0
  136.5295  132.6630  137.7196 H   0  0  0  0  0  0  0  0  0  0  0  0
  135.3902  133.5293  135.6647 H   0  0  0  0  0  0  0  0  0  0  0  0
  136.5252  132.5056  134.6520 H   0  0  0  0  0  0  0  0  0  0  0  0
  133.2129  130.2794  135.5018 H   0  0  0  0  0  0  0  0  0  0  0  0
  130.7521  130.1322  135.7975 H   0  0  0  0  0  0  0  0  0  0  0  0
  128.7206  131.3412  136.2172 H   0  0  0  0  0  0  0  0  0  0  0  0
  130.9764  134.1425  138.5246 H   0  0  0  0  0  0  0  0  0  0  0  0
  133.0297  132.8449  138.0723 H   0  0  0  0  0  0  0  0  0  0  0  0
  1  2  2  0
  2  3  1  0
  3  4  1  0
  4  5  2  0
  5  6  1  0
  6  7  1  0
  6  8  2  0
  8  9  1  0
  9 10  1  0
  9 11  2  0
  2 12  1  0
 12 13  1  0
 13 14  1  0
 14 15  1  0
 15 16  1  0
 16 17  1  0
 15 18  1  0
 18 19  1  0
 19 20  1  0
 20 21  1  0
 21 22  1  0
 19 23  1  0
 23 24  1  0
 24 25  2  0
 25 26  1  0
 26 27  2  0
 27 28  1  0
 27 29  1  0
 29 30  2  0
 11  4  1  0
 17 12  1  0
 22 20  1  0
 30 24  1  0
 23 15  1  0
  3 31  1  0
  5 32  1  0
  8 33  1  0
 11 34  1  0
 13 35  1  0
 13 36  1  0
 14 37  1  0
 14 38  1  0
 16 39  1  0
 16 40  1  0
 17 41  1  0
 17 42  1  0
 18 43  1  0
 18 44  1  0
 20 45  1  0
 21 46  1  0
 21 47  1  0
 22 48  1  0
 22 49  1  0
 23 50  1  6
 25 51  1  0
 26 52  1  0
 29 53  1  0
 30 54  1  0
M  END
>  <docking_score>  (2) 
-8.4299999999999997

$$$$

     RDKit          3D

 54 58  0  0  0  0  0  0  0  0999 V2000
  135.3026  125.7354  140.7238 O   0  0  0  0  0  0  0  0  0  0  0  0
  135.1521  125.6266  139.4881 C   0  0  0  0  0  0  0  0  0  0  0  0
  135.1622  124.3410  138.9065 N   0  0  0  0  0  0  0  0  0  0  0  0
  135.3307  123.1010  139.5694 C   0  0  0  0  0  0  0  0  0  0  0  0
  136.5137  122.6398  140.0344 C   0  0  0  0  0  0  0  0  0  0  0  0
  136.5944  121.4074  140.6841 C   0  0  0  0  0  0  0  0  0  0  0  0
  137.7775  120.9576  141.1431 F   0  0  0  0  0  0  0  0  0  0  0  0
  135.4837  120.6367  140.8665 C   0  0  0  0  0  0  0  0  0  0  0  0
  134.2746  121.0902  140.4004 C   0  0  0  0  0  0  0  0  0  0  0  0
  133.1145  120.3661  140.5494 F   0  0  0  0  0  0  0  0  0  0  0  0
  134.2051  122.2969  139.7663 C   0  0  0  0  0  0  0  0  0  0  0  0
  134.9764  126.8147  138.7222 N   0  0  0  0  0  0  0  0  0  0  0  0
  134.3457  127.9357  139.3567 C   0  0  0  0  0  0  0  0  0  0  0  0
  133.9066  128.8559  138.1903 C   0  0  0  0  0  0  0  0  0  0  0  0
  135.1744  129.3114  137.5436 C   0  0  0  0  0  0  0  0  0  0  0  0
  135.8911  128.1594  136.8772 C   0  0  0  0  0  0  0  0  0  0  0  0
  135.4444  126.8157  137.3614 C   0  0  0  0  0  0  0  0  0  0  0  0
  136.1075  130.0691  138.4774 C   0  0  0  0  0  0  0  0  0  0  0  0
  136.1860  131.0845  137.4826 N   0  0  0  0  0  0  0  0  0  0  0  0
  137.4283  131.2700  136.8196 C   0  0  0  0  0  0  0  0  0  0  0  0
  138.4044  132.1787  137.5396 C   0  0  0  0  0  0  0  0  0  0  0  0
  137.8843  132.4834  136.1667 C   0  0  0  0  0  0  0  0  0  0  0  0
  135.0861  130.5420  136.7257 C   0  0  2  0  0  0  0  0  0  0  0  0
  133.9141  131.4184  136.8426 C   0  0  0  0  0  0  0  0  0  0  0  0
  132.8473  131.2690  135.9426 C   0  0  0  0  0  0  0  0  0  0  0  0
  131.7067  131.9964  135.9693 C   0  0  0  0  0  0  0  0  0  0  0  0
  131.5480  132.9620  136.9367 C   0  0  0  0  0  0  0  0  0  0  0  0
  130.0647  133.8908  136.9518 Cl  0  0  0  0  0  0  0  0  0  0  0  0
  132.5574  133.1552  137.8466 C   0  0  0  0  0  0  0  0  0  0  0  0
  133.7282  132.3915  137.8009 C   0  0  0  0  0  0  0  0  0  0  0  0
  135.0232  124.3563  137.8408 H   0  0  0  0  0  0  0  0  0  0  0  0
  137.4400  123.1597  139.9410 H   0  0  0  0  0  0  0  0  0  0  0  0
  135.5414  119.6665  141.3769 H   0  0  0  0  0  0  0  0  0  0  0  0
  133.2719  122.6567  139.4016 H   0  0  0  0  0  0  0  0  0  0  0  0
  133.4067  127.6916  139.8938 H   0  0  0  0  0  0  0  0  0  0  0  0
  135.0019  128.5359  139.9954 H   0  0  0  0  0  0  0  0  0  0  0  0
  133.3810  128.1772  137.4555 H   0  0  0  0  0  0  0  0  0  0  0  0
  133.2952  129.6734  138.5617 H   0  0  0  0  0  0  0  0  0  0  0  0
  136.9823  128.3195  136.9841 H   0  0  0  0  0  0  0  0  0  0  0  0
  135.6763  128.2279  135.7878 H   0  0  0  0  0  0  0  0  0  0  0  0
  136.2986  126.1148  137.2697 H   0  0  0  0  0  0  0  0  0  0  0  0
  134.6301  126.3929  136.7326 H   0  0  0  0  0  0  0  0  0  0  0  0
  135.5113  130.3935  139.3807 H   0  0  0  0  0  0  0  0  0  0  0  0
  137.0213  129.5428  138.7643 H   0  0  0  0  0  0  0  0  0  0  0  0
  137.8807  130.2903  136.4768 H   0  0  0  0  0  0  0  0  0  0  0  0
  139.4379  131.8786  137.7019 H   0  0  0  0  0  0  0  0  0  0  0  0
  138.0093  132.8595  138.3272 H   0  0  0  0  0  0  0  0  0  0  0  0
  137.2896  133.3859  135.9871 H   0  0  0  0  0  0  0  0  0  0  0  0
  138.6786  132.3596  135.3714 H   0  0  0  0  0  0  0  0  0  0  0  0
  135.2791  130.3269  135.6589 H   0  0  0  0  0  0  0  0  0  0  0  0
  132.9726  130.5134  135.1849 H   0  0  0  0  0  0  0  0  0  0  0  0
  130.9432  131.7959  135.2207 H   0  0  0  0  0  0  0  0  0  0  0  0
  132.4508  133.9098  138.6145 H   0  0  0  0  0  0  0  0  0  0  0  0
  134.5087  132.5448  138.5367 H   0  0  0  0  0  0  0  0  0  0  0  0
  1  2  2  0
  2  3  1  0
  3  4  1  0
  4  5  2  0
  5  6  1  0
  6  7  1  0
  6  8  2  0
  8  9  1  0
  9 10  1  0
  9 11  2  0
  2 12  1  0
 12 13  1  0
 13 14  1  0
 14 15  1  0
 15 16  1  0
 16 17  1  0
 15 18  1  0
 18 19  1  0
 19 20  1  0
 20 21  1  0
 21 22  1  0
 19 23  1  0
 23 24  1  0
 24 25  2  0
 25 26  1  0
 26 27  2  0
 27 28  1  0
 27 29  1  0
 29 30  2  0
 11  4  1  0
 17 12  1  0
 22 20  1  0
 30 24  1  0
 23 15  1  0
  3 31  1  0
  5 32  1  0
  8 33  1  0
 11 34  1  0
 13 35  1  0
 13 36  1  0
 14 37  1  0
 14 38  1  0
 16 39  1  0
 16 40  1  0
 17 41  1  0
 17 42  1  0
 18 43  1  0
 18 44  1  0
 20 45  1  0
 21 46  1  0
 21 47  1  0
 22 48  1  0
 22 49  1  0
 23 50  1  6
 25 51  1  0
 26 52  1  0
 29 53  1  0
 30 54  1  0
M  END
>  <docking_score>  (3) 
-8.3260000000000005

$$$$
