
     RDKit          3D

 70 72  0  0  0  0  0  0  0  0999 V2000
  140.4725  111.3832  134.2663 C   0  0  0  0  0  0  0  0  0  0  0  0
  141.1466  111.1915  132.9076 C   0  0  0  0  0  0  0  0  0  0  0  0
  140.2893  110.2585  132.1124 C   0  0  0  0  0  0  0  0  0  0  0  0
  141.3112  112.4655  132.3438 O   0  0  0  0  0  0  0  0  0  0  0  0
  140.3993  113.5013  132.5113 C   0  0  0  0  0  0  0  0  0  0  0  0
  139.3554  113.4289  131.8270 O   0  0  0  0  0  0  0  0  0  0  0  0
  140.5873  114.6437  133.4203 C   0  0  0  0  0  0  0  0  0  0  0  0
  139.3218  115.1937  133.7836 N   0  0  0  0  0  0  0  0  0  0  0  0
  138.7903  116.3296  133.1260 C   0  0  0  0  0  0  0  0  0  0  0  0
  137.6731  116.1583  132.3362 C   0  0  0  0  0  0  0  0  0  0  0  0
  137.0927  117.2277  131.6626 C   0  0  0  0  0  0  0  0  0  0  0  0
  137.6679  118.4822  131.8043 C   0  0  0  0  0  0  0  0  0  0  0  0
  138.7821  118.6156  132.6005 C   0  0  0  0  0  0  0  0  0  0  0  0
  139.5323  120.2065  132.7949 Cl  0  0  0  0  0  0  0  0  0  0  0  0
  139.3780  117.5555  133.2833 C   0  0  0  0  0  0  0  0  0  0  0  0
  138.3570  114.5408  135.0787 S   0  0  0  0  0  0  0  0  0  0  0  0
  137.5053  113.4072  134.6284 O   0  0  0  0  0  0  0  0  0  0  0  0
  139.2330  114.1085  136.2198 O   0  0  0  0  0  0  0  0  0  0  0  0
  137.3284  115.8440  135.6330 C   0  0  0  0  0  0  0  0  0  0  0  0
  136.1465  116.0617  134.9747 C   0  0  0  0  0  0  0  0  0  0  0  0
  135.3207  117.0717  135.3816 C   0  0  0  0  0  0  0  0  0  0  0  0
  135.7151  117.8613  136.4726 C   0  0  0  0  0  0  0  0  0  0  0  0
  136.8786  117.6765  137.1503 C   0  0  0  0  0  0  0  0  0  0  0  0
  137.3401  118.4312  138.2456 N   0  0  0  0  0  0  0  0  0  0  0  0
  136.9624  119.7568  138.5538 C   0  0  0  0  0  0  0  0  0  0  0  0
  136.1566  120.3964  137.8522 O   0  0  0  0  0  0  0  0  0  0  0  0
  137.5263  120.4534  139.7562 C   0  0  0  0  0  0  0  0  0  0  0  0
  136.5078  121.1113  140.5158 N   0  0  0  0  0  0  0  0  0  0  0  0
  135.5344  120.3525  141.2508 C   0  0  0  0  0  0  0  0  0  0  0  0
  136.4450  122.5464  140.5523 C   0  0  0  0  0  0  0  0  0  0  0  0
  136.7136  123.1858  141.5952 O   0  0  0  0  0  0  0  0  0  0  0  0
  136.0831  123.2736  139.4275 O   0  0  0  0  0  0  0  0  0  0  0  0
  136.3559  124.6650  139.3411 C   0  0  0  0  0  0  0  0  0  0  0  0
  135.5718  125.2114  138.2147 C   0  0  0  0  0  0  0  0  0  0  0  0
  136.1245  125.8906  137.1437 C   0  0  0  0  0  0  0  0  0  0  0  0
  135.3562  126.3755  136.1290 C   0  0  0  0  0  0  0  0  0  0  0  0
  133.9770  126.2010  136.1382 C   0  0  0  0  0  0  0  0  0  0  0  0
  133.4119  125.5299  137.1927 C   0  0  0  0  0  0  0  0  0  0  0  0
  134.2016  125.0478  138.2071 C   0  0  0  0  0  0  0  0  0  0  0  0
  137.6838  116.6391  136.7004 C   0  0  0  0  0  0  0  0  0  0  0  0
  139.4279  111.0332  134.2611 H   0  0  0  0  0  0  0  0  0  0  0  0
  141.0428  110.7304  134.9737 H   0  0  0  0  0  0  0  0  0  0  0  0
  140.5589  112.4373  134.5943 H   0  0  0  0  0  0  0  0  0  0  0  0
  142.1204  110.6930  133.1206 H   0  0  0  0  0  0  0  0  0  0  0  0
  140.7925  109.2988  131.8571 H   0  0  0  0  0  0  0  0  0  0  0  0
  139.8312  110.7532  131.2363 H   0  0  0  0  0  0  0  0  0  0  0  0
  139.4232  109.9780  132.7747 H   0  0  0  0  0  0  0  0  0  0  0  0
  141.1512  115.4535  132.8707 H   0  0  0  0  0  0  0  0  0  0  0  0
  141.1779  114.3810  134.3233 H   0  0  0  0  0  0  0  0  0  0  0  0
  137.2351  115.1772  132.2341 H   0  0  0  0  0  0  0  0  0  0  0  0
  136.2260  117.1420  131.0396 H   0  0  0  0  0  0  0  0  0  0  0  0
  137.2328  119.3462  131.2857 H   0  0  0  0  0  0  0  0  0  0  0  0
  140.2550  117.7507  133.8855 H   0  0  0  0  0  0  0  0  0  0  0  0
  135.8444  115.4428  134.1252 H   0  0  0  0  0  0  0  0  0  0  0  0
  134.3610  117.2933  134.8926 H   0  0  0  0  0  0  0  0  0  0  0  0
  135.0427  118.6344  136.7598 H   0  0  0  0  0  0  0  0  0  0  0  0
  138.0435  117.9998  138.9362 H   0  0  0  0  0  0  0  0  0  0  0  0
  138.1638  119.7985  140.3631 H   0  0  0  0  0  0  0  0  0  0  0  0
  138.2039  121.2497  139.3454 H   0  0  0  0  0  0  0  0  0  0  0  0
  135.8383  119.3003  141.3301 H   0  0  0  0  0  0  0  0  0  0  0  0
  134.5339  120.4049  140.7591 H   0  0  0  0  0  0  0  0  0  0  0  0
  135.3883  120.7647  142.2695 H   0  0  0  0  0  0  0  0  0  0  0  0
  135.9934  125.1415  140.2815 H   0  0  0  0  0  0  0  0  0  0  0  0
  137.4352  124.8236  139.2263 H   0  0  0  0  0  0  0  0  0  0  0  0
  137.2002  126.0299  137.1320 H   0  0  0  0  0  0  0  0  0  0  0  0
  135.7973  126.9075  135.2913 H   0  0  0  0  0  0  0  0  0  0  0  0
  133.3834  126.5841  135.3391 H   0  0  0  0  0  0  0  0  0  0  0  0
  132.3419  125.3827  137.2204 H   0  0  0  0  0  0  0  0  0  0  0  0
  133.7360  124.5138  139.0428 H   0  0  0  0  0  0  0  0  0  0  0  0
  138.6226  116.4290  137.1866 H   0  0  0  0  0  0  0  0  0  0  0  0
  1  2  1  0
  2  3  1  0
  2  4  1  0
  4  5  1  0
  5  6  2  0
  5  7  1  0
  7  8  1  0
  8  9  1  0
  9 10  2  0
 10 11  1  0
 11 12  2  0
 12 13  1  0
 13 14  1  0
 13 15  2  0
  8 16  1  0
 16 17  2  0
 16 18  2  0
 16 19  1  0
 19 20  2  0
 20 21  1  0
 21 22  2  0
 22 23  1  0
 23 24  1  0
 24 25  1  0
 25 26  2  0
 25 27  1  0
 27 28  1  0
 28 29  1  0
 28 30  1  0
 30 31  2  0
 30 32  1  0
 32 33  1  0
 33 34  1  0
 34 35  2  0
 35 36  1  0
 36 37  2  0
 37 38  1  0
 38 39  2  0
 23 40  2  0
 15  9  1  0
 40 19  1  0
 39 34  1  0
  1 41  1  0
  1 42  1  0
  1 43  1  0
  2 44  1  0
  3 45  1  0
  3 46  1  0
  3 47  1  0
  7 48  1  0
  7 49  1  0
 10 50  1  0
 11 51  1  0
 12 52  1  0
 15 53  1  0
 20 54  1  0
 21 55  1  0
 22 56  1  0
 24 57  1  0
 27 58  1  0
 27 59  1  0
 29 60  1  0
 29 61  1  0
 29 62  1  0
 33 63  1  0
 33 64  1  0
 35 65  1  0
 36 66  1  0
 37 67  1  0
 38 68  1  0
 39 69  1  0
 40 70  1  0
M  END
>  <docking_score>  (1) 
-7.5019999999999998

$$$$

     RDKit          3D

 70 72  0  0  0  0  0  0  0  0999 V2000
  121.8838  127.7577  139.7607 C   0  0  0  0  0  0  0  0  0  0  0  0
  120.5977  127.4143  140.5127 C   0  0  0  0  0  0  0  0  0  0  0  0
  119.5316  127.1821  139.4894 C   0  0  0  0  0  0  0  0  0  0  0  0
  120.8792  126.3105  141.3314 O   0  0  0  0  0  0  0  0  0  0  0  0
  121.7008  125.2584  140.9435 C   0  0  0  0  0  0  0  0  0  0  0  0
  121.2230  124.4730  140.0962 O   0  0  0  0  0  0  0  0  0  0  0  0
  123.0597  125.0234  141.4583 C   0  0  0  0  0  0  0  0  0  0  0  0
  123.0013  124.6010  142.8199 N   0  0  0  0  0  0  0  0  0  0  0  0
  122.1634  123.5360  143.2310 C   0  0  0  0  0  0  0  0  0  0  0  0
  122.6652  122.2534  143.1656 C   0  0  0  0  0  0  0  0  0  0  0  0
  121.9026  121.1577  143.5557 C   0  0  0  0  0  0  0  0  0  0  0  0
  120.6141  121.3859  144.0165 C   0  0  0  0  0  0  0  0  0  0  0  0
  120.1467  122.6791  144.0680 C   0  0  0  0  0  0  0  0  0  0  0  0
  118.5060  122.9930  144.6519 Cl  0  0  0  0  0  0  0  0  0  0  0  0
  120.8961  123.7898  143.6812 C   0  0  0  0  0  0  0  0  0  0  0  0
  123.9186  125.3800  144.0793 S   0  0  0  0  0  0  0  0  0  0  0  0
  123.4953  126.7902  144.2925 O   0  0  0  0  0  0  0  0  0  0  0  0
  123.8099  124.6074  145.3629 O   0  0  0  0  0  0  0  0  0  0  0  0
  125.5896  125.3569  143.5588 C   0  0  0  0  0  0  0  0  0  0  0  0
  126.2422  124.1524  143.5275 C   0  0  0  0  0  0  0  0  0  0  0  0
  127.5476  124.0996  143.1268 C   0  0  0  0  0  0  0  0  0  0  0  0
  128.1838  125.2944  142.7565 C   0  0  0  0  0  0  0  0  0  0  0  0
  127.5706  126.5071  142.7743 C   0  0  0  0  0  0  0  0  0  0  0  0
  128.1463  127.7433  142.4238 N   0  0  0  0  0  0  0  0  0  0  0  0
  129.4998  128.1048  142.6020 C   0  0  0  0  0  0  0  0  0  0  0  0
  130.3323  127.3282  143.1067 O   0  0  0  0  0  0  0  0  0  0  0  0
  129.9922  129.4580  142.1831 C   0  0  0  0  0  0  0  0  0  0  0  0
  129.0784  130.4945  142.5544 N   0  0  0  0  0  0  0  0  0  0  0  0
  129.0004  130.9522  143.9138 C   0  0  0  0  0  0  0  0  0  0  0  0
  128.2225  131.0929  141.5674 C   0  0  0  0  0  0  0  0  0  0  0  0
  127.4059  130.4083  140.9093 O   0  0  0  0  0  0  0  0  0  0  0  0
  128.2735  132.4554  141.3104 O   0  0  0  0  0  0  0  0  0  0  0  0
  128.2509  132.9463  139.9776 C   0  0  0  0  0  0  0  0  0  0  0  0
  128.6319  134.3731  140.0139 C   0  0  0  0  0  0  0  0  0  0  0  0
  128.6347  135.2024  138.9065 C   0  0  0  0  0  0  0  0  0  0  0  0
  128.9952  136.5128  138.9935 C   0  0  0  0  0  0  0  0  0  0  0  0
  129.3761  137.0641  140.2116 C   0  0  0  0  0  0  0  0  0  0  0  0
  129.3793  136.2562  141.3201 C   0  0  0  0  0  0  0  0  0  0  0  0
  129.0128  134.9373  141.2142 C   0  0  0  0  0  0  0  0  0  0  0  0
  126.2455  126.5103  143.1883 C   0  0  0  0  0  0  0  0  0  0  0  0
  121.8690  127.3809  138.7256 H   0  0  0  0  0  0  0  0  0  0  0  0
  121.9080  128.8752  139.7120 H   0  0  0  0  0  0  0  0  0  0  0  0
  122.7672  127.3991  140.3238 H   0  0  0  0  0  0  0  0  0  0  0  0
  120.3396  128.3245  141.1020 H   0  0  0  0  0  0  0  0  0  0  0  0
  119.5229  127.9406  138.6745 H   0  0  0  0  0  0  0  0  0  0  0  0
  118.5372  127.0275  139.9470 H   0  0  0  0  0  0  0  0  0  0  0  0
  119.7773  126.2043  138.9886 H   0  0  0  0  0  0  0  0  0  0  0  0
  123.6259  126.0007  141.4421 H   0  0  0  0  0  0  0  0  0  0  0  0
  123.6320  124.2970  140.8434 H   0  0  0  0  0  0  0  0  0  0  0  0
  123.6691  122.0892  142.8052 H   0  0  0  0  0  0  0  0  0  0  0  0
  122.2503  120.1455  143.5225 H   0  0  0  0  0  0  0  0  0  0  0  0
  119.9875  120.5418  144.3321 H   0  0  0  0  0  0  0  0  0  0  0  0
  120.4476  124.7715  143.7520 H   0  0  0  0  0  0  0  0  0  0  0  0
  125.7411  123.2245  143.8172 H   0  0  0  0  0  0  0  0  0  0  0  0
  128.1220  123.1629  143.0814 H   0  0  0  0  0  0  0  0  0  0  0  0
  129.1985  125.2096  142.4476 H   0  0  0  0  0  0  0  0  0  0  0  0
  127.5387  128.5105  141.9765 H   0  0  0  0  0  0  0  0  0  0  0  0
  131.0219  129.6519  142.5084 H   0  0  0  0  0  0  0  0  0  0  0  0
  130.0237  129.4264  141.0606 H   0  0  0  0  0  0  0  0  0  0  0  0
  129.4088  130.2011  144.6027 H   0  0  0  0  0  0  0  0  0  0  0  0
  127.9444  131.1715  144.2007 H   0  0  0  0  0  0  0  0  0  0  0  0
  129.5506  131.9051  144.0498 H   0  0  0  0  0  0  0  0  0  0  0  0
  129.0265  132.3932  139.3985 H   0  0  0  0  0  0  0  0  0  0  0  0
  127.2591  132.7805  139.5394 H   0  0  0  0  0  0  0  0  0  0  0  0
  128.3388  134.7769  137.9535 H   0  0  0  0  0  0  0  0  0  0  0  0
  128.9947  137.1578  138.1198 H   0  0  0  0  0  0  0  0  0  0  0  0
  129.6567  138.0915  140.2701 H   0  0  0  0  0  0  0  0  0  0  0  0
  129.6717  136.6637  142.2772 H   0  0  0  0  0  0  0  0  0  0  0  0
  129.0204  134.3043  142.1084 H   0  0  0  0  0  0  0  0  0  0  0  0
  125.6905  127.4334  143.2289 H   0  0  0  0  0  0  0  0  0  0  0  0
  1  2  1  0
  2  3  1  0
  2  4  1  0
  4  5  1  0
  5  6  2  0
  5  7  1  0
  7  8  1  0
  8  9  1  0
  9 10  2  0
 10 11  1  0
 11 12  2  0
 12 13  1  0
 13 14  1  0
 13 15  2  0
  8 16  1  0
 16 17  2  0
 16 18  2  0
 16 19  1  0
 19 20  2  0
 20 21  1  0
 21 22  2  0
 22 23  1  0
 23 24  1  0
 24 25  1  0
 25 26  2  0
 25 27  1  0
 27 28  1  0
 28 29  1  0
 28 30  1  0
 30 31  2  0
 30 32  1  0
 32 33  1  0
 33 34  1  0
 34 35  2  0
 35 36  1  0
 36 37  2  0
 37 38  1  0
 38 39  2  0
 23 40  2  0
 15  9  1  0
 40 19  1  0
 39 34  1  0
  1 41  1  0
  1 42  1  0
  1 43  1  0
  2 44  1  0
  3 45  1  0
  3 46  1  0
  3 47  1  0
  7 48  1  0
  7 49  1  0
 10 50  1  0
 11 51  1  0
 12 52  1  0
 15 53  1  0
 20 54  1  0
 21 55  1  0
 22 56  1  0
 24 57  1  0
 27 58  1  0
 27 59  1  0
 29 60  1  0
 29 61  1  0
 29 62  1  0
 33 63  1  0
 33 64  1  0
 35 65  1  0
 36 66  1  0
 37 67  1  0
 38 68  1  0
 39 69  1  0
 40 70  1  0
M  END
>  <docking_score>  (2) 
-7.3700000000000001

$$$$

     RDKit          3D

 70 72  0  0  0  0  0  0  0  0999 V2000
  128.9302  139.0987  144.9952 C   0  0  0  0  0  0  0  0  0  0  0  0
  128.7031  137.5954  145.1549 C   0  0  0  0  0  0  0  0  0  0  0  0
  127.4742  137.4164  145.9887 C   0  0  0  0  0  0  0  0  0  0  0  0
  128.6250  137.0492  143.8651 O   0  0  0  0  0  0  0  0  0  0  0  0
  129.6758  136.3756  143.2531 C   0  0  0  0  0  0  0  0  0  0  0  0
  129.7525  135.1500  143.4880 O   0  0  0  0  0  0  0  0  0  0  0  0
  130.6732  137.0041  142.3716 C   0  0  0  0  0  0  0  0  0  0  0  0
  130.0611  137.4033  141.1461 N   0  0  0  0  0  0  0  0  0  0  0  0
  129.7827  138.7628  140.8642 C   0  0  0  0  0  0  0  0  0  0  0  0
  130.7062  139.4749  140.1285 C   0  0  0  0  0  0  0  0  0  0  0  0
  130.4999  140.8128  139.8093 C   0  0  0  0  0  0  0  0  0  0  0  0
  129.3338  141.4205  140.2515 C   0  0  0  0  0  0  0  0  0  0  0  0
  128.4350  140.6789  140.9832 C   0  0  0  0  0  0  0  0  0  0  0  0
  126.9413  141.4341  141.5576 Cl  0  0  0  0  0  0  0  0  0  0  0  0
  128.6244  139.3371  141.3130 C   0  0  0  0  0  0  0  0  0  0  0  0
  129.5770  136.2567  139.9274 S   0  0  0  0  0  0  0  0  0  0  0  0
  128.6888  135.1961  140.4749 O   0  0  0  0  0  0  0  0  0  0  0  0
  128.9008  136.9589  138.7845 O   0  0  0  0  0  0  0  0  0  0  0  0
  131.0483  135.5192  139.3317 C   0  0  0  0  0  0  0  0  0  0  0  0
  132.1289  136.3279  139.0948 C   0  0  0  0  0  0  0  0  0  0  0  0
  133.2926  135.7840  138.6285 C   0  0  0  0  0  0  0  0  0  0  0  0
  133.3430  134.3995  138.4053 C   0  0  0  0  0  0  0  0  0  0  0  0
  132.2934  133.5653  138.6281 C   0  0  0  0  0  0  0  0  0  0  0  0
  132.2701  132.1729  138.4212 N   0  0  0  0  0  0  0  0  0  0  0  0
  132.5507  131.5133  137.2043 C   0  0  0  0  0  0  0  0  0  0  0  0
  132.8535  132.1345  136.1683 O   0  0  0  0  0  0  0  0  0  0  0  0
  132.4937  130.0175  137.1136 C   0  0  0  0  0  0  0  0  0  0  0  0
  131.1634  129.5240  137.2981 N   0  0  0  0  0  0  0  0  0  0  0  0
  130.1166  129.8734  136.3785 C   0  0  0  0  0  0  0  0  0  0  0  0
  130.8563  128.6692  138.4115 C   0  0  0  0  0  0  0  0  0  0  0  0
  130.2983  129.1128  139.4414 O   0  0  0  0  0  0  0  0  0  0  0  0
  131.1695  127.3178  138.3814 O   0  0  0  0  0  0  0  0  0  0  0  0
  131.9569  126.7299  139.4071 C   0  0  0  0  0  0  0  0  0  0  0  0
  133.2006  126.2251  138.7903 C   0  0  0  0  0  0  0  0  0  0  0  0
  134.3207  125.8426  139.5066 C   0  0  0  0  0  0  0  0  0  0  0  0
  135.4442  125.3834  138.8889 C   0  0  0  0  0  0  0  0  0  0  0  0
  135.5013  125.2838  137.5034 C   0  0  0  0  0  0  0  0  0  0  0  0
  134.3997  125.6589  136.7771 C   0  0  0  0  0  0  0  0  0  0  0  0
  133.2753  126.1196  137.4164 C   0  0  0  0  0  0  0  0  0  0  0  0
  131.1335  134.1637  139.1012 C   0  0  0  0  0  0  0  0  0  0  0  0
  128.0199  139.6787  145.2160 H   0  0  0  0  0  0  0  0  0  0  0  0
  129.6950  139.3656  145.7669 H   0  0  0  0  0  0  0  0  0  0  0  0
  129.3351  139.3228  143.9892 H   0  0  0  0  0  0  0  0  0  0  0  0
  129.5831  137.2152  145.7237 H   0  0  0  0  0  0  0  0  0  0  0  0
  127.4569  138.0550  146.9004 H   0  0  0  0  0  0  0  0  0  0  0  0
  127.2629  136.3524  146.2019 H   0  0  0  0  0  0  0  0  0  0  0  0
  126.6081  137.7652  145.3597 H   0  0  0  0  0  0  0  0  0  0  0  0
  131.4593  136.2361  142.1106 H   0  0  0  0  0  0  0  0  0  0  0  0
  131.1913  137.8608  142.8520 H   0  0  0  0  0  0  0  0  0  0  0  0
  131.6095  138.9908  139.7905 H   0  0  0  0  0  0  0  0  0  0  0  0
  131.1882  141.4044  139.2410 H   0  0  0  0  0  0  0  0  0  0  0  0
  129.1420  142.4751  140.0154 H   0  0  0  0  0  0  0  0  0  0  0  0
  127.8660  138.8315  141.8954 H   0  0  0  0  0  0  0  0  0  0  0  0
  132.0836  137.4063  139.2708 H   0  0  0  0  0  0  0  0  0  0  0  0
  134.1914  136.3826  138.4205 H   0  0  0  0  0  0  0  0  0  0  0  0
  134.2679  134.0154  138.0457 H   0  0  0  0  0  0  0  0  0  0  0  0
  132.0227  131.5136  139.2348 H   0  0  0  0  0  0  0  0  0  0  0  0
  132.9769  129.6308  136.2077 H   0  0  0  0  0  0  0  0  0  0  0  0
  133.1107  129.6456  137.9755 H   0  0  0  0  0  0  0  0  0  0  0  0
  130.5143  129.9960  135.3624 H   0  0  0  0  0  0  0  0  0  0  0  0
  129.6138  130.8205  136.6880 H   0  0  0  0  0  0  0  0  0  0  0  0
  129.3194  129.1031  136.3646 H   0  0  0  0  0  0  0  0  0  0  0  0
  132.2281  127.5337  140.1304 H   0  0  0  0  0  0  0  0  0  0  0  0
  131.3809  125.9439  139.9107 H   0  0  0  0  0  0  0  0  0  0  0  0
  134.2814  125.9190  140.5880 H   0  0  0  0  0  0  0  0  0  0  0  0
  136.3195  125.0847  139.4580 H   0  0  0  0  0  0  0  0  0  0  0  0
  136.3854  124.9228  137.0284 H   0  0  0  0  0  0  0  0  0  0  0  0
  134.4218  125.5896  135.6991 H   0  0  0  0  0  0  0  0  0  0  0  0
  132.4033  126.4156  136.8229 H   0  0  0  0  0  0  0  0  0  0  0  0
  130.2577  133.5686  139.3028 H   0  0  0  0  0  0  0  0  0  0  0  0
  1  2  1  0
  2  3  1  0
  2  4  1  0
  4  5  1  0
  5  6  2  0
  5  7  1  0
  7  8  1  0
  8  9  1  0
  9 10  2  0
 10 11  1  0
 11 12  2  0
 12 13  1  0
 13 14  1  0
 13 15  2  0
  8 16  1  0
 16 17  2  0
 16 18  2  0
 16 19  1  0
 19 20  2  0
 20 21  1  0
 21 22  2  0
 22 23  1  0
 23 24  1  0
 24 25  1  0
 25 26  2  0
 25 27  1  0
 27 28  1  0
 28 29  1  0
 28 30  1  0
 30 31  2  0
 30 32  1  0
 32 33  1  0
 33 34  1  0
 34 35  2  0
 35 36  1  0
 36 37  2  0
 37 38  1  0
 38 39  2  0
 23 40  2  0
 15  9  1  0
 40 19  1  0
 39 34  1  0
  1 41  1  0
  1 42  1  0
  1 43  1  0
  2 44  1  0
  3 45  1  0
  3 46  1  0
  3 47  1  0
  7 48  1  0
  7 49  1  0
 10 50  1  0
 11 51  1  0
 12 52  1  0
 15 53  1  0
 20 54  1  0
 21 55  1  0
 22 56  1  0
 24 57  1  0
 27 58  1  0
 27 59  1  0
 29 60  1  0
 29 61  1  0
 29 62  1  0
 33 63  1  0
 33 64  1  0
 35 65  1  0
 36 66  1  0
 37 67  1  0
 38 68  1  0
 39 69  1  0
 40 70  1  0
M  END
>  <docking_score>  (3) 
-7.2690000000000001

$$$$
