
     RDKit          3D

 54 59  0  0  0  0  0  0  0  0999 V2000
  134.5947  132.5932  139.2036 O   0  0  0  0  0  0  0  0  0  0  0  0
  134.2970  132.2780  138.0164 C   0  0  0  0  0  0  0  0  0  0  0  0
  133.1423  132.1290  137.2255 N   0  0  0  0  0  0  0  0  0  0  0  0
  131.7889  132.5813  137.3182 C   0  0  0  0  0  0  0  0  0  0  0  0
  130.7594  131.8430  136.7650 C   0  0  0  0  0  0  0  0  0  0  0  0
  129.4527  132.2718  136.8552 C   0  0  0  0  0  0  0  0  0  0  0  0
  129.1833  133.4550  137.5089 C   0  0  0  0  0  0  0  0  0  0  0  0
  127.9107  133.9267  137.6302 F   0  0  0  0  0  0  0  0  0  0  0  0
  130.1936  134.2304  138.0812 C   0  0  0  0  0  0  0  0  0  0  0  0
  129.8240  135.7387  138.9110 Cl  0  0  0  0  0  0  0  0  0  0  0  0
  131.4868  133.7618  137.9662 C   0  0  0  0  0  0  0  0  0  0  0  0
  133.8801  131.3339  136.2894 C   0  0  2  0  0  0  0  0  0  0  0  0
  133.6481  129.8808  136.4940 C   0  0  0  0  0  0  0  0  0  0  0  0
  133.7635  128.9531  135.4881 C   0  0  0  0  0  0  0  0  0  0  0  0
  133.5511  127.5997  135.6666 C   0  0  0  0  0  0  0  0  0  0  0  0
  133.2026  127.1544  136.9324 C   0  0  0  0  0  0  0  0  0  0  0  0
  133.0910  128.0972  137.9308 C   0  0  0  0  0  0  0  0  0  0  0  0
  133.3043  129.4071  137.7237 N   0  0  0  0  0  0  0  0  0  0  0  0
  135.1346  131.9011  136.8669 C   0  0  0  0  0  0  0  0  0  0  0  0
  135.5900  133.1137  136.1069 C   0  0  0  0  0  0  0  0  0  0  0  0
  136.7045  132.7837  135.1357 C   0  0  0  0  0  0  0  0  0  0  0  0
  137.8158  132.3342  135.9225 N   0  0  0  0  0  0  0  0  0  0  0  0
  139.1678  132.6584  135.5702 C   0  0  0  0  0  0  0  0  0  0  0  0
  140.2895  132.0288  136.0046 N   0  0  0  0  0  0  0  0  0  0  0  0
  141.3809  132.5984  135.4669 C   0  0  0  0  0  0  0  0  0  0  0  0
  142.7338  132.3714  135.5606 C   0  0  0  0  0  0  0  0  0  0  0  0
  143.6661  133.1409  134.8730 C   0  0  0  0  0  0  0  0  0  0  0  0
  143.2138  134.1661  134.0708 C   0  0  0  0  0  0  0  0  0  0  0  0
  144.4001  135.1465  133.1976 Cl  0  0  0  0  0  0  0  0  0  0  0  0
  141.8656  134.4129  133.9613 C   0  0  0  0  0  0  0  0  0  0  0  0
  140.9476  133.6249  134.6628 C   0  0  0  0  0  0  0  0  0  0  0  0
  139.6057  133.6284  134.7519 N   0  0  0  0  0  0  0  0  0  0  0  0
  137.6102  131.5307  137.1021 C   0  0  0  0  0  0  0  0  0  0  0  0
  136.2382  130.9474  137.2009 C   0  0  0  0  0  0  0  0  0  0  0  0
  130.9558  130.9069  136.2444 H   0  0  0  0  0  0  0  0  0  0  0  0
  128.6652  131.6797  136.4153 H   0  0  0  0  0  0  0  0  0  0  0  0
  132.2816  134.3744  138.4179 H   0  0  0  0  0  0  0  0  0  0  0  0
  133.6618  131.6721  135.2430 H   0  0  0  0  0  0  0  0  0  0  0  0
  134.0331  129.2660  134.4940 H   0  0  0  0  0  0  0  0  0  0  0  0
  133.6510  126.9048  134.8519 H   0  0  0  0  0  0  0  0  0  0  0  0
  133.0210  126.0915  137.1357 H   0  0  0  0  0  0  0  0  0  0  0  0
  132.8169  127.7471  138.9299 H   0  0  0  0  0  0  0  0  0  0  0  0
  135.9678  133.8717  136.8052 H   0  0  0  0  0  0  0  0  0  0  0  0
  134.7491  133.5344  135.5272 H   0  0  0  0  0  0  0  0  0  0  0  0
  136.3774  132.0142  134.3962 H   0  0  0  0  0  0  0  0  0  0  0  0
  136.9222  133.6915  134.5448 H   0  0  0  0  0  0  0  0  0  0  0  0
  143.1156  131.5606  136.1934 H   0  0  0  0  0  0  0  0  0  0  0  0
  144.7225  132.9630  134.9469 H   0  0  0  0  0  0  0  0  0  0  0  0
  141.4904  135.2103  133.3374 H   0  0  0  0  0  0  0  0  0  0  0  0
  138.9908  134.3020  134.2465 H   0  0  0  0  0  0  0  0  0  0  0  0
  137.8600  132.1635  137.9765 H   0  0  0  0  0  0  0  0  0  0  0  0
  138.3514  130.7079  137.0779 H   0  0  0  0  0  0  0  0  0  0  0  0
  136.0890  130.6075  138.2457 H   0  0  0  0  0  0  0  0  0  0  0  0
  136.1260  130.0500  136.5591 H   0  0  0  0  0  0  0  0  0  0  0  0
  1  2  2  0
  2  3  1  0
  3  4  1  0
  4  5  2  0
  5  6  1  0
  6  7  2  0
  7  8  1  0
  7  9  1  0
  9 10  1  0
  9 11  2  0
  3 12  1  0
 12 13  1  0
 13 14  2  0
 14 15  1  0
 15 16  2  0
 16 17  1  0
 17 18  2  0
 12 19  1  0
 19 20  1  0
 20 21  1  0
 21 22  1  0
 22 23  1  0
 23 24  2  0
 24 25  1  0
 25 26  2  0
 26 27  1  0
 27 28  2  0
 28 29  1  0
 28 30  1  0
 30 31  2  0
 31 32  1  0
 22 33  1  0
 33 34  1  0
 19  2  1  0
 32 23  1  0
 11  4  1  0
 18 13  1  0
 34 19  1  0
 31 25  1  0
  5 35  1  0
  6 36  1  0
 11 37  1  0
 12 38  1  6
 14 39  1  0
 15 40  1  0
 16 41  1  0
 17 42  1  0
 20 43  1  0
 20 44  1  0
 21 45  1  0
 21 46  1  0
 26 47  1  0
 27 48  1  0
 30 49  1  0
 32 50  1  0
 33 51  1  0
 33 52  1  0
 34 53  1  0
 34 54  1  0
M  END
>  <docking_score>  (1) 
-9.5380000000000003

$$$$

     RDKit          3D

 54 59  0  0  0  0  0  0  0  0999 V2000
  133.2204  127.3268  139.3643 O   0  0  0  0  0  0  0  0  0  0  0  0
  132.5850  126.7149  140.2693 C   0  0  0  0  0  0  0  0  0  0  0  0
  131.4566  126.9204  141.0851 N   0  0  0  0  0  0  0  0  0  0  0  0
  130.3183  127.7845  141.0362 C   0  0  0  0  0  0  0  0  0  0  0  0
  129.0908  127.3609  141.5104 C   0  0  0  0  0  0  0  0  0  0  0  0
  127.9914  128.1911  141.4699 C   0  0  0  0  0  0  0  0  0  0  0  0
  128.1322  129.4585  140.9466 C   0  0  0  0  0  0  0  0  0  0  0  0
  127.0806  130.3225  140.8829 F   0  0  0  0  0  0  0  0  0  0  0  0
  129.3539  129.9250  140.4574 C   0  0  0  0  0  0  0  0  0  0  0  0
  129.5085  131.5484  139.7934 Cl  0  0  0  0  0  0  0  0  0  0  0  0
  130.4272  129.0591  140.5182 C   0  0  0  0  0  0  0  0  0  0  0  0
  131.9193  125.9089  141.9883 C   0  0  2  0  0  0  0  0  0  0  0  0
  132.5972  126.4939  143.1738 C   0  0  0  0  0  0  0  0  0  0  0  0
  132.7339  125.8262  144.3660 C   0  0  0  0  0  0  0  0  0  0  0  0
  133.3628  126.3594  145.4745 C   0  0  0  0  0  0  0  0  0  0  0  0
  133.8851  127.6400  145.3765 C   0  0  0  0  0  0  0  0  0  0  0  0
  133.7401  128.2965  144.1740 C   0  0  0  0  0  0  0  0  0  0  0  0
  133.1222  127.7491  143.1143 N   0  0  0  0  0  0  0  0  0  0  0  0
  132.7995  125.4005  140.8949 C   0  0  0  0  0  0  0  0  0  0  0  0
  132.1273  124.3103  140.1105 C   0  0  0  0  0  0  0  0  0  0  0  0
  132.6011  122.9362  140.5365 C   0  0  0  0  0  0  0  0  0  0  0  0
  134.0017  122.8728  140.2361 N   0  0  0  0  0  0  0  0  0  0  0  0
  134.6153  121.6682  139.7569 C   0  0  0  0  0  0  0  0  0  0  0  0
  134.1755  120.4002  139.9620 N   0  0  0  0  0  0  0  0  0  0  0  0
  134.9964  119.5204  139.3644 C   0  0  0  0  0  0  0  0  0  0  0  0
  135.0280  118.1502  139.2550 C   0  0  0  0  0  0  0  0  0  0  0  0
  136.0278  117.4832  138.5552 C   0  0  0  0  0  0  0  0  0  0  0  0
  137.0199  118.2255  137.9520 C   0  0  0  0  0  0  0  0  0  0  0  0
  138.2931  117.3768  137.0635 Cl  0  0  0  0  0  0  0  0  0  0  0  0
  137.0099  119.5971  138.0477 C   0  0  0  0  0  0  0  0  0  0  0  0
  135.9935  120.2449  138.7570 C   0  0  0  0  0  0  0  0  0  0  0  0
  135.7278  121.5373  139.0170 N   0  0  0  0  0  0  0  0  0  0  0  0
  134.8488  124.0266  140.4111 C   0  0  0  0  0  0  0  0  0  0  0  0
  134.2280  125.1096  141.2322 C   0  0  0  0  0  0  0  0  0  0  0  0
  128.9628  126.3624  141.9257 H   0  0  0  0  0  0  0  0  0  0  0  0
  127.0429  127.8391  141.8450 H   0  0  0  0  0  0  0  0  0  0  0  0
  131.3890  129.4287  140.1320 H   0  0  0  0  0  0  0  0  0  0  0  0
  131.0764  125.2204  142.2576 H   0  0  0  0  0  0  0  0  0  0  0  0
  132.3400  124.8303  144.4748 H   0  0  0  0  0  0  0  0  0  0  0  0
  133.4488  125.8037  146.3912 H   0  0  0  0  0  0  0  0  0  0  0  0
  134.3953  128.1166  146.2230 H   0  0  0  0  0  0  0  0  0  0  0  0
  134.1523  129.3063  144.0952 H   0  0  0  0  0  0  0  0  0  0  0  0
  132.3522  124.4259  139.0424 H   0  0  0  0  0  0  0  0  0  0  0  0
  131.0341  124.3539  140.2630 H   0  0  0  0  0  0  0  0  0  0  0  0
  132.3975  122.7595  141.6197 H   0  0  0  0  0  0  0  0  0  0  0  0
  132.0002  122.1845  139.9936 H   0  0  0  0  0  0  0  0  0  0  0  0
  134.2482  117.5399  139.7274 H   0  0  0  0  0  0  0  0  0  0  0  0
  136.0518  116.4129  138.4704 H   0  0  0  0  0  0  0  0  0  0  0  0
  137.7770  120.1973  137.5816 H   0  0  0  0  0  0  0  0  0  0  0  0
  136.3158  122.3308  138.6826 H   0  0  0  0  0  0  0  0  0  0  0  0
  135.1343  124.3792  139.4002 H   0  0  0  0  0  0  0  0  0  0  0  0
  135.7784  123.6851  140.9073 H   0  0  0  0  0  0  0  0  0  0  0  0
  134.8120  126.0374  141.0665 H   0  0  0  0  0  0  0  0  0  0  0  0
  134.2892  124.8888  142.3172 H   0  0  0  0  0  0  0  0  0  0  0  0
  1  2  2  0
  2  3  1  0
  3  4  1  0
  4  5  2  0
  5  6  1  0
  6  7  2  0
  7  8  1  0
  7  9  1  0
  9 10  1  0
  9 11  2  0
  3 12  1  0
 12 13  1  0
 13 14  2  0
 14 15  1  0
 15 16  2  0
 16 17  1  0
 17 18  2  0
 12 19  1  0
 19 20  1  0
 20 21  1  0
 21 22  1  0
 22 23  1  0
 23 24  2  0
 24 25  1  0
 25 26  2  0
 26 27  1  0
 27 28  2  0
 28 29  1  0
 28 30  1  0
 30 31  2  0
 31 32  1  0
 22 33  1  0
 33 34  1  0
 19  2  1  0
 32 23  1  0
 11  4  1  0
 18 13  1  0
 34 19  1  0
 31 25  1  0
  5 35  1  0
  6 36  1  0
 11 37  1  0
 12 38  1  1
 14 39  1  0
 15 40  1  0
 16 41  1  0
 17 42  1  0
 20 43  1  0
 20 44  1  0
 21 45  1  0
 21 46  1  0
 26 47  1  0
 27 48  1  0
 30 49  1  0
 32 50  1  0
 33 51  1  0
 33 52  1  0
 34 53  1  0
 34 54  1  0
M  END
>  <docking_score>  (2) 
-9.2780000000000005

$$$$

     RDKit          3D

 54 59  0  0  0  0  0  0  0  0999 V2000
  134.6265  132.2381  139.3994 O   0  0  0  0  0  0  0  0  0  0  0  0
  134.3100  132.0714  138.1872 C   0  0  0  0  0  0  0  0  0  0  0  0
  133.1425  132.0133  137.4033 N   0  0  0  0  0  0  0  0  0  0  0  0
  131.7882  132.4396  137.5744 C   0  0  0  0  0  0  0  0  0  0  0  0
  131.2393  133.3957  136.7403 C   0  0  0  0  0  0  0  0  0  0  0  0
  129.9333  133.8069  136.8978 C   0  0  0  0  0  0  0  0  0  0  0  0
  129.1758  133.2488  137.9050 C   0  0  0  0  0  0  0  0  0  0  0  0
  127.8790  133.6157  138.1062 F   0  0  0  0  0  0  0  0  0  0  0  0
  129.6918  132.2807  138.7687 C   0  0  0  0  0  0  0  0  0  0  0  0
  128.7038  131.5827  140.0482 Cl  0  0  0  0  0  0  0  0  0  0  0  0
  131.0040  131.8997  138.5736 C   0  0  0  0  0  0  0  0  0  0  0  0
  133.8683  131.3475  136.3628 C   0  0  2  0  0  0  0  0  0  0  0  0
  133.6485  129.8784  136.3877 C   0  0  0  0  0  0  0  0  0  0  0  0
  133.8152  129.0755  135.2862 C   0  0  0  0  0  0  0  0  0  0  0  0
  133.6146  127.7087  135.2975 C   0  0  0  0  0  0  0  0  0  0  0  0
  133.2236  127.1155  136.4882 C   0  0  0  0  0  0  0  0  0  0  0  0
  133.0608  127.9343  137.5841 C   0  0  0  0  0  0  0  0  0  0  0  0
  133.2641  129.2614  137.5394 N   0  0  0  0  0  0  0  0  0  0  0  0
  135.1294  131.8480  136.9858 C   0  0  0  0  0  0  0  0  0  0  0  0
  135.5643  133.1497  136.3761 C   0  0  0  0  0  0  0  0  0  0  0  0
  136.6635  132.9527  135.3528 C   0  0  0  0  0  0  0  0  0  0  0  0
  137.7910  132.4173  136.0584 N   0  0  0  0  0  0  0  0  0  0  0  0
  139.1347  132.7938  135.7270 C   0  0  0  0  0  0  0  0  0  0  0  0
  140.2521  132.5204  136.4482 N   0  0  0  0  0  0  0  0  0  0  0  0
  141.3365  133.0237  135.8354 C   0  0  0  0  0  0  0  0  0  0  0  0
  142.6825  133.0410  136.1153 C   0  0  0  0  0  0  0  0  0  0  0  0
  143.6080  133.6555  135.2786 C   0  0  0  0  0  0  0  0  0  0  0  0
  143.1558  134.2674  134.1296 C   0  0  0  0  0  0  0  0  0  0  0  0
  144.3329  135.0511  133.0662 Cl  0  0  0  0  0  0  0  0  0  0  0  0
  141.8142  134.2636  133.8283 C   0  0  0  0  0  0  0  0  0  0  0  0
  140.9030  133.6388  134.6857 C   0  0  0  0  0  0  0  0  0  0  0  0
  139.5681  133.4781  134.6564 N   0  0  0  0  0  0  0  0  0  0  0  0
  137.6109  131.4709  137.1314 C   0  0  0  0  0  0  0  0  0  0  0  0
  136.2442  130.8689  137.1794 C   0  0  0  0  0  0  0  0  0  0  0  0
  131.8249  133.8470  135.9409 H   0  0  0  0  0  0  0  0  0  0  0  0
  129.5260  134.5552  136.2356 H   0  0  0  0  0  0  0  0  0  0  0  0
  131.4088  131.1366  139.2554 H   0  0  0  0  0  0  0  0  0  0  0  0
  133.6297  131.8121  135.3707 H   0  0  0  0  0  0  0  0  0  0  0  0
  134.1186  129.5047  134.3468 H   0  0  0  0  0  0  0  0  0  0  0  0
  133.7552  127.1145  134.4123 H   0  0  0  0  0  0  0  0  0  0  0  0
  133.0489  126.0345  136.5590 H   0  0  0  0  0  0  0  0  0  0  0  0
  132.7532  127.4676  138.5239 H   0  0  0  0  0  0  0  0  0  0  0  0
  135.9499  133.8174  137.1574 H   0  0  0  0  0  0  0  0  0  0  0  0
  134.7109  133.6329  135.8677 H   0  0  0  0  0  0  0  0  0  0  0  0
  136.3280  132.2792  134.5283 H   0  0  0  0  0  0  0  0  0  0  0  0
  136.8655  133.9291  134.8766 H   0  0  0  0  0  0  0  0  0  0  0  0
  143.0642  132.5599  137.0245 H   0  0  0  0  0  0  0  0  0  0  0  0
  144.6591  133.6687  135.4981 H   0  0  0  0  0  0  0  0  0  0  0  0
  141.4394  134.7363  132.9328 H   0  0  0  0  0  0  0  0  0  0  0  0
  138.9549  133.8415  133.8954 H   0  0  0  0  0  0  0  0  0  0  0  0
  137.8723  131.9914  138.0739 H   0  0  0  0  0  0  0  0  0  0  0  0
  138.3564  130.6635  136.9921 H   0  0  0  0  0  0  0  0  0  0  0  0
  136.1154  130.3998  138.1757 H   0  0  0  0  0  0  0  0  0  0  0  0
  136.1261  130.0580  136.4322 H   0  0  0  0  0  0  0  0  0  0  0  0
  1  2  2  0
  2  3  1  0
  3  4  1  0
  4  5  2  0
  5  6  1  0
  6  7  2  0
  7  8  1  0
  7  9  1  0
  9 10  1  0
  9 11  2  0
  3 12  1  0
 12 13  1  0
 13 14  2  0
 14 15  1  0
 15 16  2  0
 16 17  1  0
 17 18  2  0
 12 19  1  0
 19 20  1  0
 20 21  1  0
 21 22  1  0
 22 23  1  0
 23 24  2  0
 24 25  1  0
 25 26  2  0
 26 27  1  0
 27 28  2  0
 28 29  1  0
 28 30  1  0
 30 31  2  0
 31 32  1  0
 22 33  1  0
 33 34  1  0
 19  2  1  0
 32 23  1  0
 11  4  1  0
 18 13  1  0
 34 19  1  0
 31 25  1  0
  5 35  1  0
  6 36  1  0
 11 37  1  0
 12 38  1  6
 14 39  1  0
 15 40  1  0
 16 41  1  0
 17 42  1  0
 20 43  1  0
 20 44  1  0
 21 45  1  0
 21 46  1  0
 26 47  1  0
 27 48  1  0
 30 49  1  0
 32 50  1  0
 33 51  1  0
 33 52  1  0
 34 53  1  0
 34 54  1  0
M  END
>  <docking_score>  (3) 
-9.2379999999999995

$$$$
