
     RDKit          3D

 57 62  0  0  0  0  0  0  0  0999 V2000
  133.9064  134.0427  137.4479 O   0  0  0  0  0  0  0  0  0  0  0  0
  134.0343  132.8324  137.1856 C   0  0  0  0  0  0  0  0  0  0  0  0
  135.1793  131.9650  137.0455 N   0  0  0  0  0  0  0  0  0  0  0  0
  136.4919  131.8930  137.5382 C   0  0  0  0  0  0  0  0  0  0  0  0
  136.7464  131.9032  138.8893 C   0  0  0  0  0  0  0  0  0  0  0  0
  138.0537  131.8295  139.3765 C   0  0  0  0  0  0  0  0  0  0  0  0
  139.1065  131.7448  138.5007 C   0  0  0  0  0  0  0  0  0  0  0  0
  140.3893  131.6725  138.9518 F   0  0  0  0  0  0  0  0  0  0  0  0
  138.8701  131.7331  137.1384 C   0  0  0  0  0  0  0  0  0  0  0  0
  140.2396  131.6230  136.0579 Cl  0  0  0  0  0  0  0  0  0  0  0  0
  137.5531  131.8080  136.6727 C   0  0  0  0  0  0  0  0  0  0  0  0
  134.3731  131.1777  136.1451 C   0  0  1  0  0  0  0  0  0  0  0  0
  134.6132  129.7350  136.0980 C   0  0  0  0  0  0  0  0  0  0  0  0
  134.1177  129.0117  135.0402 C   0  0  0  0  0  0  0  0  0  0  0  0
  134.2705  127.6589  134.8634 C   0  0  0  0  0  0  0  0  0  0  0  0
  134.9892  126.9891  135.8500 C   0  0  0  0  0  0  0  0  0  0  0  0
  135.4792  127.7236  136.9031 C   0  0  0  0  0  0  0  0  0  0  0  0
  135.3058  129.0597  137.0398 N   0  0  0  0  0  0  0  0  0  0  0  0
  133.1839  131.6585  136.8869 C   0  0  0  0  0  0  0  0  0  0  0  0
  132.8172  130.9275  138.1437 C   0  0  0  0  0  0  0  0  0  0  0  0
  132.0569  131.9358  139.0093 C   0  0  0  0  0  0  0  0  0  0  0  0
  131.1978  132.7313  138.1560 N   0  0  0  0  0  0  0  0  0  0  0  0
  130.7757  134.0481  138.5317 C   0  0  0  0  0  0  0  0  0  0  0  0
  129.4815  134.4361  138.6474 N   0  0  0  0  0  0  0  0  0  0  0  0
  129.4186  135.7255  139.0081 C   0  0  0  0  0  0  0  0  0  0  0  0
  128.4219  136.6326  139.2679 C   0  0  0  0  0  0  0  0  0  0  0  0
  128.6216  137.9427  139.6335 C   0  0  0  0  0  0  0  0  0  0  0  0
  127.5981  138.7769  139.8752 F   0  0  0  0  0  0  0  0  0  0  0  0
  129.9389  138.3899  139.7506 C   0  0  0  0  0  0  0  0  0  0  0  0
  130.2316  139.7882  140.1397 C   0  0  0  0  0  0  0  0  0  0  0  0
  129.0897  140.5249  139.7886 F   0  0  0  0  0  0  0  0  0  0  0  0
  131.2804  140.3007  139.3905 F   0  0  0  0  0  0  0  0  0  0  0  0
  130.4806  139.9217  141.4789 F   0  0  0  0  0  0  0  0  0  0  0  0
  130.9389  137.4956  139.4943 C   0  0  0  0  0  0  0  0  0  0  0  0
  130.7301  136.1795  139.1274 C   0  0  0  0  0  0  0  0  0  0  0  0
  131.5096  135.1272  138.8286 N   0  0  0  0  0  0  0  0  0  0  0  0
  130.7748  132.1603  136.8950 C   0  0  0  0  0  0  0  0  0  0  0  0
  131.9819  131.9589  136.0212 C   0  0  0  0  0  0  0  0  0  0  0  0
  135.9034  131.9693  139.5629 H   0  0  0  0  0  0  0  0  0  0  0  0
  138.2342  131.8393  140.4338 H   0  0  0  0  0  0  0  0  0  0  0  0
  137.4445  131.7946  135.6070 H   0  0  0  0  0  0  0  0  0  0  0  0
  134.3673  131.5944  135.1100 H   0  0  0  0  0  0  0  0  0  0  0  0
  133.5412  129.5196  134.2520 H   0  0  0  0  0  0  0  0  0  0  0  0
  133.8525  127.1517  134.0040 H   0  0  0  0  0  0  0  0  0  0  0  0
  135.1215  125.9294  135.7306 H   0  0  0  0  0  0  0  0  0  0  0  0
  136.0389  127.1641  137.6613 H   0  0  0  0  0  0  0  0  0  0  0  0
  133.7417  130.6420  138.6638 H   0  0  0  0  0  0  0  0  0  0  0  0
  132.1725  130.0407  137.9668 H   0  0  0  0  0  0  0  0  0  0  0  0
  131.5435  131.4621  139.8459 H   0  0  0  0  0  0  0  0  0  0  0  0
  132.8271  132.6529  139.4121 H   0  0  0  0  0  0  0  0  0  0  0  0
  127.4064  136.2616  139.1715 H   0  0  0  0  0  0  0  0  0  0  0  0
  131.9665  137.8409  139.5828 H   0  0  0  0  0  0  0  0  0  0  0  0
  132.5574  135.1789  138.8373 H   0  0  0  0  0  0  0  0  0  0  0  0
  130.2965  131.1640  137.0501 H   0  0  0  0  0  0  0  0  0  0  0  0
  130.0003  132.7937  136.4109 H   0  0  0  0  0  0  0  0  0  0  0  0
  131.8013  131.0800  135.3790 H   0  0  0  0  0  0  0  0  0  0  0  0
  132.1809  132.8172  135.3515 H   0  0  0  0  0  0  0  0  0  0  0  0
  1  2  2  0
  2  3  1  0
  3  4  1  0
  4  5  2  0
  5  6  1  0
  6  7  2  0
  7  8  1  0
  7  9  1  0
  9 10  1  0
  9 11  2  0
  3 12  1  0
 12 13  1  0
 13 14  2  0
 14 15  1  0
 15 16  2  0
 16 17  1  0
 17 18  2  0
 12 19  1  0
 19 20  1  0
 20 21  1  0
 21 22  1  0
 22 23  1  0
 23 24  2  0
 24 25  1  0
 25 26  2  0
 26 27  1  0
 27 28  1  0
 27 29  2  0
 29 30  1  0
 30 31  1  0
 30 32  1  0
 30 33  1  0
 29 34  1  0
 34 35  2  0
 35 36  1  0
 22 37  1  0
 37 38  1  0
 19  2  1  0
 36 23  1  0
 11  4  1  0
 18 13  1  0
 38 19  1  0
 35 25  1  0
  5 39  1  0
  6 40  1  0
 11 41  1  0
 12 42  1  6
 14 43  1  0
 15 44  1  0
 16 45  1  0
 17 46  1  0
 20 47  1  0
 20 48  1  0
 21 49  1  0
 21 50  1  0
 26 51  1  0
 34 52  1  0
 36 53  1  0
 37 54  1  0
 37 55  1  0
 38 56  1  0
 38 57  1  0
M  END
>  <docking_score>  (1) 
-9.9570000000000007

$$$$

     RDKit          3D

 57 62  0  0  0  0  0  0  0  0999 V2000
  133.9608  134.2163  137.5210 O   0  0  0  0  0  0  0  0  0  0  0  0
  134.0632  133.0066  137.2451 C   0  0  0  0  0  0  0  0  0  0  0  0
  135.1711  132.1720  136.8462 N   0  0  0  0  0  0  0  0  0  0  0  0
  136.5643  132.1471  137.0169 C   0  0  0  0  0  0  0  0  0  0  0  0
  137.4142  132.4281  135.9733 C   0  0  0  0  0  0  0  0  0  0  0  0
  138.8002  132.4043  136.1468 C   0  0  0  0  0  0  0  0  0  0  0  0
  139.3309  132.0974  137.3743 C   0  0  0  0  0  0  0  0  0  0  0  0
  140.6785  132.0674  137.5675 F   0  0  0  0  0  0  0  0  0  0  0  0
  138.4920  131.8121  138.4357 C   0  0  0  0  0  0  0  0  0  0  0  0
  139.2094  131.4272  139.9824 Cl  0  0  0  0  0  0  0  0  0  0  0  0
  137.1072  131.8416  138.2393 C   0  0  0  0  0  0  0  0  0  0  0  0
  134.2021  131.3473  136.1667 C   0  0  1  0  0  0  0  0  0  0  0  0
  134.4717  129.9120  136.0754 C   0  0  0  0  0  0  0  0  0  0  0  0
  133.9061  129.1922  135.0509 C   0  0  0  0  0  0  0  0  0  0  0  0
  134.0756  127.8464  134.8392 C   0  0  0  0  0  0  0  0  0  0  0  0
  134.8907  127.1804  135.7506 C   0  0  0  0  0  0  0  0  0  0  0  0
  135.4501  127.9113  136.7711 C   0  0  0  0  0  0  0  0  0  0  0  0
  135.2571  129.2405  136.9443 N   0  0  0  0  0  0  0  0  0  0  0  0
  133.2054  131.8033  137.1638 C   0  0  0  0  0  0  0  0  0  0  0  0
  133.1683  131.0806  138.4770 C   0  0  0  0  0  0  0  0  0  0  0  0
  132.5999  132.0785  139.4895 C   0  0  0  0  0  0  0  0  0  0  0  0
  131.5388  132.8349  138.8562 N   0  0  0  0  0  0  0  0  0  0  0  0
  131.1737  134.1438  139.3107 C   0  0  0  0  0  0  0  0  0  0  0  0
  130.3889  134.3916  140.3884 N   0  0  0  0  0  0  0  0  0  0  0  0
  130.2301  135.7131  140.5473 C   0  0  0  0  0  0  0  0  0  0  0  0
  129.5683  136.5310  141.4286 C   0  0  0  0  0  0  0  0  0  0  0  0
  129.5598  137.9048  141.3775 C   0  0  0  0  0  0  0  0  0  0  0  0
  128.8911  138.6451  142.2757 F   0  0  0  0  0  0  0  0  0  0  0  0
  130.2783  138.5203  140.3510 C   0  0  0  0  0  0  0  0  0  0  0  0
  130.3146  139.9957  140.2318 C   0  0  0  0  0  0  0  0  0  0  0  0
  131.2073  140.2682  139.1837 F   0  0  0  0  0  0  0  0  0  0  0  0
  130.8547  140.5707  141.3728 F   0  0  0  0  0  0  0  0  0  0  0  0
  129.0870  140.5324  139.9520 F   0  0  0  0  0  0  0  0  0  0  0  0
  130.9407  137.7158  139.4680 C   0  0  0  0  0  0  0  0  0  0  0  0
  130.9448  136.3349  139.5260 C   0  0  0  0  0  0  0  0  0  0  0  0
  131.4951  135.3419  138.8081 N   0  0  0  0  0  0  0  0  0  0  0  0
  130.8504  132.2324  137.7345 C   0  0  0  0  0  0  0  0  0  0  0  0
  131.8245  132.0543  136.6028 C   0  0  0  0  0  0  0  0  0  0  0  0
  136.9765  132.6687  135.0145 H   0  0  0  0  0  0  0  0  0  0  0  0
  139.4487  132.6255  135.3216 H   0  0  0  0  0  0  0  0  0  0  0  0
  136.5187  131.6100  139.1040 H   0  0  0  0  0  0  0  0  0  0  0  0
  133.9398  131.7481  135.1589 H   0  0  0  0  0  0  0  0  0  0  0  0
  133.2533  129.6969  134.3226 H   0  0  0  0  0  0  0  0  0  0  0  0
  133.5989  127.3416  134.0095 H   0  0  0  0  0  0  0  0  0  0  0  0
  135.0376  126.1262  135.6027 H   0  0  0  0  0  0  0  0  0  0  0  0
  136.0849  127.3549  137.4701 H   0  0  0  0  0  0  0  0  0  0  0  0
  134.1979  130.8310  138.7672 H   0  0  0  0  0  0  0  0  0  0  0  0
  132.5295  130.1722  138.4635 H   0  0  0  0  0  0  0  0  0  0  0  0
  132.3131  131.6022  140.4270 H   0  0  0  0  0  0  0  0  0  0  0  0
  133.4192  132.8245  139.6944 H   0  0  0  0  0  0  0  0  0  0  0  0
  129.0178  136.0299  142.2185 H   0  0  0  0  0  0  0  0  0  0  0  0
  131.5002  138.1917  138.6658 H   0  0  0  0  0  0  0  0  0  0  0  0
  132.0959  135.5184  137.9664 H   0  0  0  0  0  0  0  0  0  0  0  0
  130.4549  131.2246  138.0053 H   0  0  0  0  0  0  0  0  0  0  0  0
  129.9636  132.8349  137.4413 H   0  0  0  0  0  0  0  0  0  0  0  0
  131.5270  131.1607  136.0278 H   0  0  0  0  0  0  0  0  0  0  0  0
  131.8324  132.9079  135.8986 H   0  0  0  0  0  0  0  0  0  0  0  0
  1  2  2  0
  2  3  1  0
  3  4  1  0
  4  5  2  0
  5  6  1  0
  6  7  2  0
  7  8  1  0
  7  9  1  0
  9 10  1  0
  9 11  2  0
  3 12  1  0
 12 13  1  0
 13 14  2  0
 14 15  1  0
 15 16  2  0
 16 17  1  0
 17 18  2  0
 12 19  1  0
 19 20  1  0
 20 21  1  0
 21 22  1  0
 22 23  1  0
 23 24  2  0
 24 25  1  0
 25 26  2  0
 26 27  1  0
 27 28  1  0
 27 29  2  0
 29 30  1  0
 30 31  1  0
 30 32  1  0
 30 33  1  0
 29 34  1  0
 34 35  2  0
 35 36  1  0
 22 37  1  0
 37 38  1  0
 19  2  1  0
 36 23  1  0
 11  4  1  0
 18 13  1  0
 38 19  1  0
 35 25  1  0
  5 39  1  0
  6 40  1  0
 11 41  1  0
 12 42  1  6
 14 43  1  0
 15 44  1  0
 16 45  1  0
 17 46  1  0
 20 47  1  0
 20 48  1  0
 21 49  1  0
 21 50  1  0
 26 51  1  0
 34 52  1  0
 36 53  1  0
 37 54  1  0
 37 55  1  0
 38 56  1  0
 38 57  1  0
M  END
>  <docking_score>  (2) 
-9.9160000000000004

$$$$

     RDKit          3D

 57 62  0  0  0  0  0  0  0  0999 V2000
  127.4716  129.4277  141.1806 O   0  0  0  0  0  0  0  0  0  0  0  0
  128.6123  129.6980  140.7614 C   0  0  0  0  0  0  0  0  0  0  0  0
  129.2968  130.9375  140.4815 N   0  0  0  0  0  0  0  0  0  0  0  0
  129.2554  132.2681  140.9270 C   0  0  0  0  0  0  0  0  0  0  0  0
  129.5105  132.5872  142.2399 C   0  0  0  0  0  0  0  0  0  0  0  0
  129.4705  133.9126  142.6797 C   0  0  0  0  0  0  0  0  0  0  0  0
  129.1735  134.9184  141.7950 C   0  0  0  0  0  0  0  0  0  0  0  0
  129.1281  136.2176  142.2004 F   0  0  0  0  0  0  0  0  0  0  0  0
  128.9143  134.6169  140.4707 C   0  0  0  0  0  0  0  0  0  0  0  0
  128.5413  135.9282  139.3769 Cl  0  0  0  0  0  0  0  0  0  0  0  0
  128.9597  133.2828  140.0521 C   0  0  0  0  0  0  0  0  0  0  0  0
  130.0655  130.2011  139.5081 C   0  0  1  0  0  0  0  0  0  0  0  0
  131.4467  130.6213  139.2695 C   0  0  0  0  0  0  0  0  0  0  0  0
  132.0392  130.3108  138.0695 C   0  0  0  0  0  0  0  0  0  0  0  0
  133.3209  130.6446  137.7079 C   0  0  0  0  0  0  0  0  0  0  0  0
  134.0588  131.3544  138.6513 C   0  0  0  0  0  0  0  0  0  0  0  0
  133.4551  131.6586  139.8478 C   0  0  0  0  0  0  0  0  0  0  0  0
  132.1856  131.3099  140.1654 N   0  0  0  0  0  0  0  0  0  0  0  0
  129.8419  128.9927  140.3359 C   0  0  0  0  0  0  0  0  0  0  0  0
  130.7655  128.7757  141.4970 C   0  0  0  0  0  0  0  0  0  0  0  0
  129.9819  127.9300  142.5045 C   0  0  0  0  0  0  0  0  0  0  0  0
  129.2069  126.9411  141.7831 N   0  0  0  0  0  0  0  0  0  0  0  0
  128.0145  126.3705  142.3358 C   0  0  0  0  0  0  0  0  0  0  0  0
  127.9946  125.4176  143.3004 N   0  0  0  0  0  0  0  0  0  0  0  0
  126.7292  125.0904  143.5974 C   0  0  0  0  0  0  0  0  0  0  0  0
  126.1083  124.2224  144.4605 C   0  0  0  0  0  0  0  0  0  0  0  0
  124.7477  124.0670  144.5818 C   0  0  0  0  0  0  0  0  0  0  0  0
  124.2064  123.1986  145.4505 F   0  0  0  0  0  0  0  0  0  0  0  0
  123.9300  124.8505  143.7655 C   0  0  0  0  0  0  0  0  0  0  0  0
  122.4555  124.7374  143.8399 C   0  0  0  0  0  0  0  0  0  0  0  0
  122.1029  125.2231  145.1086 F   0  0  0  0  0  0  0  0  0  0  0  0
  122.0588  123.4089  143.7992 F   0  0  0  0  0  0  0  0  0  0  0  0
  121.8214  125.4636  142.8683 F   0  0  0  0  0  0  0  0  0  0  0  0
  124.5373  125.7178  142.9026 C   0  0  0  0  0  0  0  0  0  0  0  0
  125.9062  125.8687  142.7866 C   0  0  0  0  0  0  0  0  0  0  0  0
  126.7330  126.6234  142.0442 N   0  0  0  0  0  0  0  0  0  0  0  0
  129.6676  126.5417  140.4703 C   0  0  0  0  0  0  0  0  0  0  0  0
  129.5976  127.7267  139.5472 C   0  0  0  0  0  0  0  0  0  0  0  0
  129.7436  131.7807  142.9209 H   0  0  0  0  0  0  0  0  0  0  0  0
  129.6715  134.1437  143.7076 H   0  0  0  0  0  0  0  0  0  0  0  0
  128.7481  133.1228  139.0142 H   0  0  0  0  0  0  0  0  0  0  0  0
  129.5277  130.0984  138.5358 H   0  0  0  0  0  0  0  0  0  0  0  0
  131.4767  129.7447  137.3115 H   0  0  0  0  0  0  0  0  0  0  0  0
  133.7251  130.3671  136.7434 H   0  0  0  0  0  0  0  0  0  0  0  0
  135.0644  131.6268  138.3880 H   0  0  0  0  0  0  0  0  0  0  0  0
  134.0653  132.2170  140.5668 H   0  0  0  0  0  0  0  0  0  0  0  0
  130.9888  129.7502  141.9522 H   0  0  0  0  0  0  0  0  0  0  0  0
  131.7007  128.2427  141.2240 H   0  0  0  0  0  0  0  0  0  0  0  0
  130.6196  127.5171  143.2860 H   0  0  0  0  0  0  0  0  0  0  0  0
  129.2251  128.6187  142.9764 H   0  0  0  0  0  0  0  0  0  0  0  0
  126.7645  123.6250  145.0855 H   0  0  0  0  0  0  0  0  0  0  0  0
  123.9034  126.3286  142.2638 H   0  0  0  0  0  0  0  0  0  0  0  0
  126.3849  127.3141  141.3355 H   0  0  0  0  0  0  0  0  0  0  0  0
  130.7299  126.2015  140.5080 H   0  0  0  0  0  0  0  0  0  0  0  0
  129.0867  125.6729  140.0918 H   0  0  0  0  0  0  0  0  0  0  0  0
  130.4059  127.6328  138.8019 H   0  0  0  0  0  0  0  0  0  0  0  0
  128.6440  127.7860  138.9887 H   0  0  0  0  0  0  0  0  0  0  0  0
  1  2  2  0
  2  3  1  0
  3  4  1  0
  4  5  2  0
  5  6  1  0
  6  7  2  0
  7  8  1  0
  7  9  1  0
  9 10  1  0
  9 11  2  0
  3 12  1  0
 12 13  1  0
 13 14  2  0
 14 15  1  0
 15 16  2  0
 16 17  1  0
 17 18  2  0
 12 19  1  0
 19 20  1  0
 20 21  1  0
 21 22  1  0
 22 23  1  0
 23 24  2  0
 24 25  1  0
 25 26  2  0
 26 27  1  0
 27 28  1  0
 27 29  2  0
 29 30  1  0
 30 31  1  0
 30 32  1  0
 30 33  1  0
 29 34  1  0
 34 35  2  0
 35 36  1  0
 22 37  1  0
 37 38  1  0
 19  2  1  0
 36 23  1  0
 11  4  1  0
 18 13  1  0
 38 19  1  0
 35 25  1  0
  5 39  1  0
  6 40  1  0
 11 41  1  0
 12 42  1  6
 14 43  1  0
 15 44  1  0
 16 45  1  0
 17 46  1  0
 20 47  1  0
 20 48  1  0
 21 49  1  0
 21 50  1  0
 26 51  1  0
 34 52  1  0
 36 53  1  0
 37 54  1  0
 37 55  1  0
 38 56  1  0
 38 57  1  0
M  END
>  <docking_score>  (3) 
-9.7929999999999993

$$$$
