
     RDKit          3D

 50 53  0  0  0  0  0  0  0  0999 V2000
  138.6577  118.5254  139.3911 C   0  0  0  0  0  0  0  0  0  0  0  0
  137.9971  119.7430  139.6764 N   0  0  0  0  0  0  0  0  0  0  0  0
  137.0458  119.7858  140.7318 C   0  0  0  0  0  0  0  0  0  0  0  0
  136.1454  120.6232  139.8511 C   0  0  0  0  0  0  0  0  0  0  0  0
  134.7285  120.2373  139.7843 C   0  0  0  0  0  0  0  0  0  0  0  0
  133.9297  121.1057  140.7361 C   0  0  0  0  0  0  0  0  0  0  0  0
  133.9291  122.4312  140.1674 N   0  0  0  0  0  0  0  0  0  0  0  0
  132.7344  123.1909  140.1294 C   0  0  0  0  0  0  0  0  0  0  0  0
  132.0426  123.1607  139.0963 O   0  0  0  0  0  0  0  0  0  0  0  0
  132.3910  123.9477  141.2765 N   0  0  0  0  0  0  0  0  0  0  0  0
  131.2461  124.7422  141.3667 C   0  0  0  0  0  0  0  0  0  0  0  0
  131.3300  126.0584  140.8843 C   0  0  0  0  0  0  0  0  0  0  0  0
  130.2475  126.8955  140.9224 C   0  0  0  0  0  0  0  0  0  0  0  0
  130.3438  128.1645  140.4525 F   0  0  0  0  0  0  0  0  0  0  0  0
  129.0399  126.4951  141.4281 C   0  0  0  0  0  0  0  0  0  0  0  0
  128.9436  125.2214  141.8994 C   0  0  0  0  0  0  0  0  0  0  0  0
  127.7699  124.7985  142.4026 F   0  0  0  0  0  0  0  0  0  0  0  0
  130.0380  124.3452  141.8710 C   0  0  0  0  0  0  0  0  0  0  0  0
  135.1749  122.9432  139.6475 C   0  0  0  0  0  0  0  0  0  0  0  0
  136.2625  122.0750  140.2615 C   0  0  0  0  0  0  0  0  0  0  0  0
  137.0586  120.2563  138.7344 C   0  0  2  0  0  0  0  0  0  0  0  0
  136.5508  119.3147  137.7186 C   0  0  0  0  0  0  0  0  0  0  0  0
  136.9491  119.3813  136.3974 C   0  0  0  0  0  0  0  0  0  0  0  0
  136.4844  118.5092  135.4346 C   0  0  0  0  0  0  0  0  0  0  0  0
  135.5862  117.5122  135.7450 C   0  0  0  0  0  0  0  0  0  0  0  0
  135.0987  116.6326  134.8471 F   0  0  0  0  0  0  0  0  0  0  0  0
  135.1801  117.4333  137.0584 C   0  0  0  0  0  0  0  0  0  0  0  0
  135.6505  118.3106  138.0149 C   0  0  0  0  0  0  0  0  0  0  0  0
  138.3881  117.6796  140.0533 H   0  0  0  0  0  0  0  0  0  0  0  0
  139.7697  118.6617  139.5373 H   0  0  0  0  0  0  0  0  0  0  0  0
  138.5424  118.2925  138.3126 H   0  0  0  0  0  0  0  0  0  0  0  0
  136.6199  118.8331  141.0880 H   0  0  0  0  0  0  0  0  0  0  0  0
  137.4745  120.3249  141.6154 H   0  0  0  0  0  0  0  0  0  0  0  0
  134.5041  119.1894  140.0583 H   0  0  0  0  0  0  0  0  0  0  0  0
  134.3387  120.4407  138.7662 H   0  0  0  0  0  0  0  0  0  0  0  0
  134.4593  121.1025  141.7180 H   0  0  0  0  0  0  0  0  0  0  0  0
  132.9075  120.7096  140.8980 H   0  0  0  0  0  0  0  0  0  0  0  0
  133.0424  123.9195  142.1267 H   0  0  0  0  0  0  0  0  0  0  0  0
  132.2628  126.4026  140.4825 H   0  0  0  0  0  0  0  0  0  0  0  0
  128.1891  127.1770  141.4500 H   0  0  0  0  0  0  0  0  0  0  0  0
  129.8933  123.3338  142.2539 H   0  0  0  0  0  0  0  0  0  0  0  0
  135.1658  122.8999  138.5549 H   0  0  0  0  0  0  0  0  0  0  0  0
  135.3293  123.9575  140.0658 H   0  0  0  0  0  0  0  0  0  0  0  0
  136.1947  122.1645  141.3515 H   0  0  0  0  0  0  0  0  0  0  0  0
  137.2308  122.5267  139.9469 H   0  0  0  0  0  0  0  0  0  0  0  0
  137.4628  121.1657  138.2422 H   0  0  0  0  0  0  0  0  0  0  0  0
  137.6517  120.1411  136.0910 H   0  0  0  0  0  0  0  0  0  0  0  0
  136.8020  118.5669  134.3951 H   0  0  0  0  0  0  0  0  0  0  0  0
  134.4620  116.6428  137.3276 H   0  0  0  0  0  0  0  0  0  0  0  0
  135.2836  118.1795  139.0127 H   0  0  0  0  0  0  0  0  0  0  0  0
  1  2  1  0
  2  3  1  0
  3  4  1  0
  4  5  1  0
  5  6  1  0
  6  7  1  0
  7  8  1  0
  8  9  2  0
  8 10  1  0
 10 11  1  0
 11 12  2  0
 12 13  1  0
 13 14  1  0
 13 15  2  0
 15 16  1  0
 16 17  1  0
 16 18  2  0
  7 19  1  0
 19 20  1  0
  4 21  1  0
 21 22  1  0
 22 23  2  0
 23 24  1  0
 24 25  2  0
 25 26  1  0
 25 27  1  0
 27 28  2  0
 21  2  1  0
 28 22  1  0
 20  4  1  0
 18 11  1  0
  1 29  1  0
  1 30  1  0
  1 31  1  0
  3 32  1  0
  3 33  1  0
  5 34  1  0
  5 35  1  0
  6 36  1  0
  6 37  1  0
 10 38  1  0
 12 39  1  0
 15 40  1  0
 18 41  1  0
 19 42  1  0
 19 43  1  0
 20 44  1  0
 20 45  1  0
 21 46  1  6
 23 47  1  0
 24 48  1  0
 27 49  1  0
 28 50  1  0
M  END
>  <docking_score>  (1) 
-8.5220000000000002

$$$$

     RDKit          3D

 50 53  0  0  0  0  0  0  0  0999 V2000
  138.5115  131.7126  140.1839 C   0  0  0  0  0  0  0  0  0  0  0  0
  139.5752  132.4068  140.8057 N   0  0  0  0  0  0  0  0  0  0  0  0
  139.4754  133.8134  140.9848 C   0  0  0  0  0  0  0  0  0  0  0  0
  140.9208  133.9438  140.5586 C   0  0  0  0  0  0  0  0  0  0  0  0
  141.2358  134.9881  139.5730 C   0  0  0  0  0  0  0  0  0  0  0  0
  141.7589  136.2140  140.2952 C   0  0  0  0  0  0  0  0  0  0  0  0
  143.0578  135.8548  140.8094 N   0  0  0  0  0  0  0  0  0  0  0  0
  144.1476  136.7506  140.6841 C   0  0  0  0  0  0  0  0  0  0  0  0
  143.9108  137.9426  140.4196 O   0  0  0  0  0  0  0  0  0  0  0  0
  145.4548  136.2369  140.8679 N   0  0  0  0  0  0  0  0  0  0  0  0
  146.6129  137.0106  140.7662 C   0  0  0  0  0  0  0  0  0  0  0  0
  147.0519  137.6767  141.9220 C   0  0  0  0  0  0  0  0  0  0  0  0
  148.1869  138.4419  141.9087 C   0  0  0  0  0  0  0  0  0  0  0  0
  148.5984  139.0795  143.0332 F   0  0  0  0  0  0  0  0  0  0  0  0
  148.9440  138.5949  140.7783 C   0  0  0  0  0  0  0  0  0  0  0  0
  148.5307  137.9548  139.6500 C   0  0  0  0  0  0  0  0  0  0  0  0
  149.2536  138.0858  138.5231 F   0  0  0  0  0  0  0  0  0  0  0  0
  147.3719  137.1652  139.6386 C   0  0  0  0  0  0  0  0  0  0  0  0
  143.1990  134.5667  141.4461 C   0  0  0  0  0  0  0  0  0  0  0  0
  141.7853  134.1216  141.7879 C   0  0  0  0  0  0  0  0  0  0  0  0
  140.8175  132.5261  140.1171 C   0  0  2  0  0  0  0  0  0  0  0  0
  140.8032  132.2625  138.6657 C   0  0  0  0  0  0  0  0  0  0  0  0
  139.6789  132.4852  137.8943 C   0  0  0  0  0  0  0  0  0  0  0  0
  139.6478  132.2443  136.5362 C   0  0  0  0  0  0  0  0  0  0  0  0
  140.7521  131.7623  135.8690 C   0  0  0  0  0  0  0  0  0  0  0  0
  140.7798  131.5087  134.5452 F   0  0  0  0  0  0  0  0  0  0  0  0
  141.8806  131.5355  136.6249 C   0  0  0  0  0  0  0  0  0  0  0  0
  141.9021  131.7795  137.9835 C   0  0  0  0  0  0  0  0  0  0  0  0
  138.2169  132.1004  139.1891 H   0  0  0  0  0  0  0  0  0  0  0  0
  137.5813  131.8112  140.8176 H   0  0  0  0  0  0  0  0  0  0  0  0
  138.7368  130.6264  140.1824 H   0  0  0  0  0  0  0  0  0  0  0  0
  138.7418  134.3654  140.3740 H   0  0  0  0  0  0  0  0  0  0  0  0
  139.2783  134.0518  142.0616 H   0  0  0  0  0  0  0  0  0  0  0  0
  140.3875  135.3323  138.9524 H   0  0  0  0  0  0  0  0  0  0  0  0
  142.0537  134.6362  138.9120 H   0  0  0  0  0  0  0  0  0  0  0  0
  141.0556  136.4359  141.1323 H   0  0  0  0  0  0  0  0  0  0  0  0
  141.7921  137.1014  139.6325 H   0  0  0  0  0  0  0  0  0  0  0  0
  145.5728  135.1962  141.0934 H   0  0  0  0  0  0  0  0  0  0  0  0
  146.4801  137.5775  142.8237 H   0  0  0  0  0  0  0  0  0  0  0  0
  149.8450  139.2091  140.7877 H   0  0  0  0  0  0  0  0  0  0  0  0
  147.1001  136.6696  138.7053 H   0  0  0  0  0  0  0  0  0  0  0  0
  143.7088  133.8739  140.7709 H   0  0  0  0  0  0  0  0  0  0  0  0
  143.7084  134.7194  142.4181 H   0  0  0  0  0  0  0  0  0  0  0  0
  141.3436  134.8720  142.4531 H   0  0  0  0  0  0  0  0  0  0  0  0
  141.8922  133.1780  142.3699 H   0  0  0  0  0  0  0  0  0  0  0  0
  141.5939  131.9035  140.6095 H   0  0  0  0  0  0  0  0  0  0  0  0
  138.7808  132.8627  138.3590 H   0  0  0  0  0  0  0  0  0  0  0  0
  138.7587  132.4217  135.9339 H   0  0  0  0  0  0  0  0  0  0  0  0
  142.7748  131.1500  136.1104 H   0  0  0  0  0  0  0  0  0  0  0  0
  142.8204  131.5761  138.4963 H   0  0  0  0  0  0  0  0  0  0  0  0
  1  2  1  0
  2  3  1  0
  3  4  1  0
  4  5  1  0
  5  6  1  0
  6  7  1  0
  7  8  1  0
  8  9  2  0
  8 10  1  0
 10 11  1  0
 11 12  2  0
 12 13  1  0
 13 14  1  0
 13 15  2  0
 15 16  1  0
 16 17  1  0
 16 18  2  0
  7 19  1  0
 19 20  1  0
  4 21  1  0
 21 22  1  0
 22 23  2  0
 23 24  1  0
 24 25  2  0
 25 26  1  0
 25 27  1  0
 27 28  2  0
 21  2  1  0
 28 22  1  0
 20  4  1  0
 18 11  1  0
  1 29  1  0
  1 30  1  0
  1 31  1  0
  3 32  1  0
  3 33  1  0
  5 34  1  0
  5 35  1  0
  6 36  1  0
  6 37  1  0
 10 38  1  0
 12 39  1  0
 15 40  1  0
 18 41  1  0
 19 42  1  0
 19 43  1  0
 20 44  1  0
 20 45  1  0
 21 46  1  1
 23 47  1  0
 24 48  1  0
 27 49  1  0
 28 50  1  0
M  END
>  <docking_score>  (2) 
-7.7400000000000002

$$$$

     RDKit          3D

 50 53  0  0  0  0  0  0  0  0999 V2000
  129.9789  128.8585  140.7143 C   0  0  0  0  0  0  0  0  0  0  0  0
  131.1689  128.0952  140.6770 N   0  0  0  0  0  0  0  0  0  0  0  0
  131.5230  127.4198  139.4774 C   0  0  0  0  0  0  0  0  0  0  0  0
  131.9231  126.2176  140.3033 C   0  0  0  0  0  0  0  0  0  0  0  0
  131.4424  124.9045  139.8495 C   0  0  0  0  0  0  0  0  0  0  0  0
  132.5378  124.2189  139.0572 C   0  0  0  0  0  0  0  0  0  0  0  0
  133.5665  123.8738  140.0076 N   0  0  0  0  0  0  0  0  0  0  0  0
  134.1773  122.5966  139.9659 C   0  0  0  0  0  0  0  0  0  0  0  0
  133.4755  121.5939  140.1869 O   0  0  0  0  0  0  0  0  0  0  0  0
  135.5617  122.5311  139.6732 N   0  0  0  0  0  0  0  0  0  0  0  0
  136.2843  121.3380  139.6077 C   0  0  0  0  0  0  0  0  0  0  0  0
  136.1138  120.5379  138.4662 C   0  0  0  0  0  0  0  0  0  0  0  0
  136.7981  119.3615  138.3190 C   0  0  0  0  0  0  0  0  0  0  0  0
  136.6229  118.5992  137.2105 F   0  0  0  0  0  0  0  0  0  0  0  0
  137.6749  118.9099  139.2686 C   0  0  0  0  0  0  0  0  0  0  0  0
  137.8505  119.6753  140.3808 C   0  0  0  0  0  0  0  0  0  0  0  0
  138.7055  119.2582  141.3319 F   0  0  0  0  0  0  0  0  0  0  0  0
  137.1613  120.8841  140.5544 C   0  0  0  0  0  0  0  0  0  0  0  0
  133.9416  124.8666  140.9865 C   0  0  0  0  0  0  0  0  0  0  0  0
  133.4297  126.1917  140.4427 C   0  0  0  0  0  0  0  0  0  0  0  0
  131.2427  126.8942  141.4412 C   0  0  2  0  0  0  0  0  0  0  0  0
  129.9660  126.3231  141.9103 C   0  0  0  0  0  0  0  0  0  0  0  0
  128.7728  127.0100  141.7952 C   0  0  0  0  0  0  0  0  0  0  0  0
  127.5700  126.4912  142.2285 C   0  0  0  0  0  0  0  0  0  0  0  0
  127.4951  125.2434  142.8067 C   0  0  0  0  0  0  0  0  0  0  0  0
  126.3495  124.6863  143.2478 F   0  0  0  0  0  0  0  0  0  0  0  0
  128.6766  124.5466  142.9280 C   0  0  0  0  0  0  0  0  0  0  0  0
  129.8754  125.0740  142.4916 C   0  0  0  0  0  0  0  0  0  0  0  0
  130.1235  129.9444  140.8776 H   0  0  0  0  0  0  0  0  0  0  0  0
  129.3454  128.5187  141.5860 H   0  0  0  0  0  0  0  0  0  0  0  0
  129.3693  128.6271  139.8167 H   0  0  0  0  0  0  0  0  0  0  0  0
  130.7355  127.2467  138.7253 H   0  0  0  0  0  0  0  0  0  0  0  0
  132.3723  127.9490  138.9735 H   0  0  0  0  0  0  0  0  0  0  0  0
  130.5506  124.9210  139.1954 H   0  0  0  0  0  0  0  0  0  0  0  0
  131.2383  124.2622  140.7302 H   0  0  0  0  0  0  0  0  0  0  0  0
  132.9248  124.9549  138.3134 H   0  0  0  0  0  0  0  0  0  0  0  0
  132.1572  123.3392  138.5011 H   0  0  0  0  0  0  0  0  0  0  0  0
  136.0947  123.4433  139.4951 H   0  0  0  0  0  0  0  0  0  0  0  0
  135.4332  120.8637  137.7043 H   0  0  0  0  0  0  0  0  0  0  0  0
  138.2105  117.9697  139.1331 H   0  0  0  0  0  0  0  0  0  0  0  0
  137.3542  121.4566  141.4630 H   0  0  0  0  0  0  0  0  0  0  0  0
  133.5073  124.6120  141.9572 H   0  0  0  0  0  0  0  0  0  0  0  0
  135.0464  124.9487  140.9847 H   0  0  0  0  0  0  0  0  0  0  0  0
  133.9006  126.3645  139.4685 H   0  0  0  0  0  0  0  0  0  0  0  0
  133.8035  126.9754  141.1402 H   0  0  0  0  0  0  0  0  0  0  0  0
  131.9396  127.0221  142.2960 H   0  0  0  0  0  0  0  0  0  0  0  0
  128.7656  127.9934  141.3505 H   0  0  0  0  0  0  0  0  0  0  0  0
  126.6332  127.0375  142.1350 H   0  0  0  0  0  0  0  0  0  0  0  0
  128.6385  123.5465  143.3878 H   0  0  0  0  0  0  0  0  0  0  0  0
  130.7473  124.4658  142.6238 H   0  0  0  0  0  0  0  0  0  0  0  0
  1  2  1  0
  2  3  1  0
  3  4  1  0
  4  5  1  0
  5  6  1  0
  6  7  1  0
  7  8  1  0
  8  9  2  0
  8 10  1  0
 10 11  1  0
 11 12  2  0
 12 13  1  0
 13 14  1  0
 13 15  2  0
 15 16  1  0
 16 17  1  0
 16 18  2  0
  7 19  1  0
 19 20  1  0
  4 21  1  0
 21 22  1  0
 22 23  2  0
 23 24  1  0
 24 25  2  0
 25 26  1  0
 25 27  1  0
 27 28  2  0
 21  2  1  0
 28 22  1  0
 20  4  1  0
 18 11  1  0
  1 29  1  0
  1 30  1  0
  1 31  1  0
  3 32  1  0
  3 33  1  0
  5 34  1  0
  5 35  1  0
  6 36  1  0
  6 37  1  0
 10 38  1  0
 12 39  1  0
 15 40  1  0
 18 41  1  0
 19 42  1  0
 19 43  1  0
 20 44  1  0
 20 45  1  0
 21 46  1  1
 23 47  1  0
 24 48  1  0
 27 49  1  0
 28 50  1  0
M  END
>  <docking_score>  (3) 
-7.6639999999999997

$$$$
