
     RDKit          3D

 54 59  0  0  0  0  0  0  0  0999 V2000
  142.9891  131.8011  136.7518 O   0  0  0  0  0  0  0  0  0  0  0  0
  143.1020  132.7617  135.9919 C   0  0  0  0  0  0  0  0  0  0  0  0
  142.2109  133.7341  135.3625 N   0  0  0  0  0  0  0  0  0  0  0  0
  140.8779  133.5349  134.9456 C   0  0  0  0  0  0  0  0  0  0  0  0
  140.4345  133.8244  133.6911 C   0  0  0  0  0  0  0  0  0  0  0  0
  139.1161  133.6407  133.3035 C   0  0  0  0  0  0  0  0  0  0  0  0
  138.2375  133.1474  134.2345 C   0  0  0  0  0  0  0  0  0  0  0  0
  136.9299  132.9670  133.8563 F   0  0  0  0  0  0  0  0  0  0  0  0
  138.6702  132.8462  135.5191 C   0  0  0  0  0  0  0  0  0  0  0  0
  137.5044  132.2206  136.6940 Cl  0  0  0  0  0  0  0  0  0  0  0  0
  139.9559  133.0275  135.8878 C   0  0  0  0  0  0  0  0  0  0  0  0
  143.2824  134.6900  135.4155 C   0  0  1  0  0  0  0  0  0  0  0  0
  143.3147  135.4578  136.6395 C   0  0  0  0  0  0  0  0  0  0  0  0
  144.0759  136.6065  136.6895 C   0  0  0  0  0  0  0  0  0  0  0  0
  144.1440  137.4309  137.7915 C   0  0  0  0  0  0  0  0  0  0  0  0
  143.4284  137.1143  138.9090 C   0  0  0  0  0  0  0  0  0  0  0  0
  142.6623  135.9483  138.8483 C   0  0  0  0  0  0  0  0  0  0  0  0
  142.6243  135.1793  137.7622 N   0  0  0  0  0  0  0  0  0  0  0  0
  144.1819  133.4861  135.2821 C   0  0  0  0  0  0  0  0  0  0  0  0
  144.2095  133.1211  133.8021 C   0  0  0  0  0  0  0  0  0  0  0  0
  145.6415  133.3864  133.2968 C   0  0  0  0  0  0  0  0  0  0  0  0
  146.4044  132.3587  133.9825 N   0  0  0  0  0  0  0  0  0  0  0  0
  146.9771  131.2977  133.2462 C   0  0  0  0  0  0  0  0  0  0  0  0
  146.8160  131.0252  131.9379 N   0  0  0  0  0  0  0  0  0  0  0  0
  147.5188  129.9413  131.5743 C   0  0  0  0  0  0  0  0  0  0  0  0
  147.7375  129.2176  130.4194 C   0  0  0  0  0  0  0  0  0  0  0  0
  148.5446  128.1113  130.3700 C   0  0  0  0  0  0  0  0  0  0  0  0
  148.7392  127.4132  129.2140 F   0  0  0  0  0  0  0  0  0  0  0  0
  149.1888  127.6671  131.5086 C   0  0  0  0  0  0  0  0  0  0  0  0
  150.2315  126.2474  131.4619 Cl  0  0  0  0  0  0  0  0  0  0  0  0
  148.9900  128.3682  132.6708 C   0  0  0  0  0  0  0  0  0  0  0  0
  148.1649  129.4916  132.7045 C   0  0  0  0  0  0  0  0  0  0  0  0
  147.8150  130.3340  133.6934 N   0  0  0  0  0  0  0  0  0  0  0  0
  146.4946  132.5060  135.4076 C   0  0  0  0  0  0  0  0  0  0  0  0
  145.4862  133.4855  135.9608 C   0  0  0  0  0  0  0  0  0  0  0  0
  141.0888  134.2271  132.9227 H   0  0  0  0  0  0  0  0  0  0  0  0
  138.7666  133.8682  132.3155 H   0  0  0  0  0  0  0  0  0  0  0  0
  140.3259  132.7975  136.9010 H   0  0  0  0  0  0  0  0  0  0  0  0
  143.3044  135.3602  134.5090 H   0  0  0  0  0  0  0  0  0  0  0  0
  144.6938  136.9247  135.8465 H   0  0  0  0  0  0  0  0  0  0  0  0
  144.7531  138.3262  137.7889 H   0  0  0  0  0  0  0  0  0  0  0  0
  143.4733  137.7496  139.7669 H   0  0  0  0  0  0  0  0  0  0  0  0
  142.1063  135.7276  139.7540 H   0  0  0  0  0  0  0  0  0  0  0  0
  143.5427  133.7156  133.1783 H   0  0  0  0  0  0  0  0  0  0  0  0
  144.0349  132.0499  133.6905 H   0  0  0  0  0  0  0  0  0  0  0  0
  145.6269  133.2413  132.2198 H   0  0  0  0  0  0  0  0  0  0  0  0
  145.9992  134.3745  133.6382 H   0  0  0  0  0  0  0  0  0  0  0  0
  147.2360  129.5606  129.5294 H   0  0  0  0  0  0  0  0  0  0  0  0
  149.4913  128.0249  133.5621 H   0  0  0  0  0  0  0  0  0  0  0  0
  148.1572  130.2357  134.6652 H   0  0  0  0  0  0  0  0  0  0  0  0
  146.4794  131.5251  135.9294 H   0  0  0  0  0  0  0  0  0  0  0  0
  147.5031  132.9345  135.6232 H   0  0  0  0  0  0  0  0  0  0  0  0
  145.9208  134.4961  136.1133 H   0  0  0  0  0  0  0  0  0  0  0  0
  145.3068  133.1192  137.0196 H   0  0  0  0  0  0  0  0  0  0  0  0
  1  2  2  0
  2  3  1  0
  3  4  1  0
  4  5  2  0
  5  6  1  0
  6  7  2  0
  7  8  1  0
  7  9  1  0
  9 10  1  0
  9 11  2  0
  3 12  1  0
 12 13  1  0
 13 14  2  0
 14 15  1  0
 15 16  2  0
 16 17  1  0
 17 18  2  0
 12 19  1  0
 19 20  1  0
 20 21  1  0
 21 22  1  0
 22 23  1  0
 23 24  2  0
 24 25  1  0
 25 26  2  0
 26 27  1  0
 27 28  1  0
 27 29  2  0
 29 30  1  0
 29 31  1  0
 31 32  2  0
 32 33  1  0
 22 34  1  0
 34 35  1  0
 19  2  1  0
 33 23  1  0
 11  4  1  0
 18 13  1  0
 35 19  1  0
 32 25  1  0
  5 36  1  0
  6 37  1  0
 11 38  1  0
 12 39  1  6
 14 40  1  0
 15 41  1  0
 16 42  1  0
 17 43  1  0
 20 44  1  0
 20 45  1  0
 21 46  1  0
 21 47  1  0
 26 48  1  0
 31 49  1  0
 33 50  1  0
 34 51  1  0
 34 52  1  0
 35 53  1  0
 35 54  1  0
M  END
>  <docking_score>  (1) 
-9.5709999999999997

$$$$

     RDKit          3D

 54 59  0  0  0  0  0  0  0  0999 V2000
  142.9716  131.9664  136.9370 O   0  0  0  0  0  0  0  0  0  0  0  0
  143.0357  132.8929  136.1305 C   0  0  0  0  0  0  0  0  0  0  0  0
  142.1001  133.8113  135.4849 N   0  0  0  0  0  0  0  0  0  0  0  0
  140.7611  133.5585  135.1193 C   0  0  0  0  0  0  0  0  0  0  0  0
  139.7785  133.2812  136.0204 C   0  0  0  0  0  0  0  0  0  0  0  0
  138.4713  133.0160  135.6425 C   0  0  0  0  0  0  0  0  0  0  0  0
  138.1746  133.0375  134.3032 C   0  0  0  0  0  0  0  0  0  0  0  0
  136.8820  132.7720  133.9239 F   0  0  0  0  0  0  0  0  0  0  0  0
  139.1627  133.3181  133.3689 C   0  0  0  0  0  0  0  0  0  0  0  0
  138.7423  133.3272  131.6501 Cl  0  0  0  0  0  0  0  0  0  0  0  0
  140.4328  133.5759  133.7456 C   0  0  0  0  0  0  0  0  0  0  0  0
  143.1463  134.7960  135.4602 C   0  0  1  0  0  0  0  0  0  0  0  0
  143.1944  135.6210  136.6459 C   0  0  0  0  0  0  0  0  0  0  0  0
  142.3180  135.3610  137.6784 C   0  0  0  0  0  0  0  0  0  0  0  0
  142.3072  136.0599  138.8659 C   0  0  0  0  0  0  0  0  0  0  0  0
  143.2031  137.0711  139.0552 C   0  0  0  0  0  0  0  0  0  0  0  0
  144.0848  137.3270  138.0029 C   0  0  0  0  0  0  0  0  0  0  0  0
  144.0617  136.6269  136.8708 N   0  0  0  0  0  0  0  0  0  0  0  0
  144.0738  133.6106  135.3547 C   0  0  0  0  0  0  0  0  0  0  0  0
  144.0671  133.1773  133.8930 C   0  0  0  0  0  0  0  0  0  0  0  0
  145.4755  133.4553  133.3316 C   0  0  0  0  0  0  0  0  0  0  0  0
  146.2862  132.4810  134.0400 N   0  0  0  0  0  0  0  0  0  0  0  0
  146.8653  131.4016  133.3361 C   0  0  0  0  0  0  0  0  0  0  0  0
  147.8522  131.4523  132.4220 N   0  0  0  0  0  0  0  0  0  0  0  0
  148.1573  130.2284  131.9639 C   0  0  0  0  0  0  0  0  0  0  0  0
  149.0443  129.6780  131.0608 C   0  0  0  0  0  0  0  0  0  0  0  0
  149.1154  128.3337  130.8046 C   0  0  0  0  0  0  0  0  0  0  0  0
  150.0005  127.8184  129.9031 F   0  0  0  0  0  0  0  0  0  0  0  0
  148.2770  127.4538  131.4615 C   0  0  0  0  0  0  0  0  0  0  0  0
  148.3566  125.7222  131.1451 Cl  0  0  0  0  0  0  0  0  0  0  0  0
  147.3856  127.9735  132.3655 C   0  0  0  0  0  0  0  0  0  0  0  0
  147.3253  129.3440  132.6141 C   0  0  0  0  0  0  0  0  0  0  0  0
  146.5600  130.0871  133.4340 N   0  0  0  0  0  0  0  0  0  0  0  0
  146.4150  132.6974  135.4533 C   0  0  0  0  0  0  0  0  0  0  0  0
  145.3974  133.6755  135.9917 C   0  0  0  0  0  0  0  0  0  0  0  0
  139.9660  133.2418  137.0900 H   0  0  0  0  0  0  0  0  0  0  0  0
  137.6971  132.7980  136.3519 H   0  0  0  0  0  0  0  0  0  0  0  0
  141.2368  133.8007  133.0248 H   0  0  0  0  0  0  0  0  0  0  0  0
  143.1230  135.4231  134.5235 H   0  0  0  0  0  0  0  0  0  0  0  0
  141.5561  134.5815  137.6042 H   0  0  0  0  0  0  0  0  0  0  0  0
  141.6029  135.8223  139.6534 H   0  0  0  0  0  0  0  0  0  0  0  0
  143.2034  137.6162  139.9742 H   0  0  0  0  0  0  0  0  0  0  0  0
  144.7831  138.1372  138.1879 H   0  0  0  0  0  0  0  0  0  0  0  0
  143.3660  133.7245  133.2634 H   0  0  0  0  0  0  0  0  0  0  0  0
  143.9184  132.0979  133.8365 H   0  0  0  0  0  0  0  0  0  0  0  0
  145.4327  133.2595  132.2634 H   0  0  0  0  0  0  0  0  0  0  0  0
  145.8163  134.4673  133.6157 H   0  0  0  0  0  0  0  0  0  0  0  0
  149.6994  130.3615  130.5459 H   0  0  0  0  0  0  0  0  0  0  0  0
  146.7293  127.2899  132.8807 H   0  0  0  0  0  0  0  0  0  0  0  0
  145.8361  129.6805  134.0518 H   0  0  0  0  0  0  0  0  0  0  0  0
  146.4420  131.7421  136.0200 H   0  0  0  0  0  0  0  0  0  0  0  0
  147.4174  133.1614  135.6174 H   0  0  0  0  0  0  0  0  0  0  0  0
  145.8087  134.7031  136.0837 H   0  0  0  0  0  0  0  0  0  0  0  0
  145.2597  133.3549  137.0714 H   0  0  0  0  0  0  0  0  0  0  0  0
  1  2  2  0
  2  3  1  0
  3  4  1  0
  4  5  2  0
  5  6  1  0
  6  7  2  0
  7  8  1  0
  7  9  1  0
  9 10  1  0
  9 11  2  0
  3 12  1  0
 12 13  1  0
 13 14  2  0
 14 15  1  0
 15 16  2  0
 16 17  1  0
 17 18  2  0
 12 19  1  0
 19 20  1  0
 20 21  1  0
 21 22  1  0
 22 23  1  0
 23 24  2  0
 24 25  1  0
 25 26  2  0
 26 27  1  0
 27 28  1  0
 27 29  2  0
 29 30  1  0
 29 31  1  0
 31 32  2  0
 32 33  1  0
 22 34  1  0
 34 35  1  0
 19  2  1  0
 33 23  1  0
 11  4  1  0
 18 13  1  0
 35 19  1  0
 32 25  1  0
  5 36  1  0
  6 37  1  0
 11 38  1  0
 12 39  1  6
 14 40  1  0
 15 41  1  0
 16 42  1  0
 17 43  1  0
 20 44  1  0
 20 45  1  0
 21 46  1  0
 21 47  1  0
 26 48  1  0
 31 49  1  0
 33 50  1  0
 34 51  1  0
 34 52  1  0
 35 53  1  0
 35 54  1  0
M  END
>  <docking_score>  (2) 
-9.4420000000000002

$$$$

     RDKit          3D

 54 59  0  0  0  0  0  0  0  0999 V2000
  130.9575  133.3850  136.9930 O   0  0  0  0  0  0  0  0  0  0  0  0
  131.4788  133.4649  138.1042 C   0  0  0  0  0  0  0  0  0  0  0  0
  131.2982  134.2681  139.3116 N   0  0  0  0  0  0  0  0  0  0  0  0
  130.8649  135.6082  139.3960 C   0  0  0  0  0  0  0  0  0  0  0  0
  131.6705  136.6320  139.7923 C   0  0  0  0  0  0  0  0  0  0  0  0
  131.2231  137.9407  139.8883 C   0  0  0  0  0  0  0  0  0  0  0  0
  129.9136  138.1952  139.5680 C   0  0  0  0  0  0  0  0  0  0  0  0
  129.4650  139.4893  139.6649 F   0  0  0  0  0  0  0  0  0  0  0  0
  129.0762  137.1647  139.1620 C   0  0  0  0  0  0  0  0  0  0  0  0
  127.3912  137.5319  138.7664 Cl  0  0  0  0  0  0  0  0  0  0  0  0
  129.5204  135.8934  139.0706 C   0  0  0  0  0  0  0  0  0  0  0  0
  131.7485  133.1408  140.0805 C   0  0  1  0  0  0  0  0  0  0  0  0
  130.6847  132.2451  140.4738 C   0  0  0  0  0  0  0  0  0  0  0  0
  130.8971  131.3720  141.5198 C   0  0  0  0  0  0  0  0  0  0  0  0
  129.9383  130.5063  141.9996 C   0  0  0  0  0  0  0  0  0  0  0  0
  128.7016  130.4922  141.4238 C   0  0  0  0  0  0  0  0  0  0  0  0
  128.4977  131.3790  140.3645 C   0  0  0  0  0  0  0  0  0  0  0  0
  129.4523  132.1999  139.9317 N   0  0  0  0  0  0  0  0  0  0  0  0
  132.5714  132.8094  138.8601 C   0  0  0  0  0  0  0  0  0  0  0  0
  133.8117  133.6943  138.9140 C   0  0  0  0  0  0  0  0  0  0  0  0
  135.0219  132.7651  139.1334 C   0  0  0  0  0  0  0  0  0  0  0  0
  135.0901  132.0470  137.8733 N   0  0  0  0  0  0  0  0  0  0  0  0
  136.1730  132.2695  136.9936 C   0  0  0  0  0  0  0  0  0  0  0  0
  137.4818  132.0670  137.2347 N   0  0  0  0  0  0  0  0  0  0  0  0
  138.2297  132.3787  136.1649 C   0  0  0  0  0  0  0  0  0  0  0  0
  139.5689  132.3749  135.8306 C   0  0  0  0  0  0  0  0  0  0  0  0
  140.0361  132.7672  134.6036 C   0  0  0  0  0  0  0  0  0  0  0  0
  141.3669  132.7563  134.3027 F   0  0  0  0  0  0  0  0  0  0  0  0
  139.1568  133.1927  133.6266 C   0  0  0  0  0  0  0  0  0  0  0  0
  139.7407  133.6987  132.0429 Cl  0  0  0  0  0  0  0  0  0  0  0  0
  137.8193  133.2059  133.9314 C   0  0  0  0  0  0  0  0  0  0  0  0
  137.3603  132.8044  135.1851 C   0  0  0  0  0  0  0  0  0  0  0  0
  136.1285  132.7250  135.7203 N   0  0  0  0  0  0  0  0  0  0  0  0
  133.9962  131.1547  137.6125 C   0  0  0  0  0  0  0  0  0  0  0  0
  132.8112  131.4000  138.5168 C   0  0  0  0  0  0  0  0  0  0  0  0
  132.7107  136.4794  140.0667 H   0  0  0  0  0  0  0  0  0  0  0  0
  131.8573  138.7474  140.1999 H   0  0  0  0  0  0  0  0  0  0  0  0
  128.8769  135.0562  138.7518 H   0  0  0  0  0  0  0  0  0  0  0  0
  132.3756  133.4484  140.9656 H   0  0  0  0  0  0  0  0  0  0  0  0
  131.8629  131.3042  142.0261 H   0  0  0  0  0  0  0  0  0  0  0  0
  130.1453  129.8374  142.8255 H   0  0  0  0  0  0  0  0  0  0  0  0
  127.9514  129.8261  141.7914 H   0  0  0  0  0  0  0  0  0  0  0  0
  127.5034  131.3410  139.9308 H   0  0  0  0  0  0  0  0  0  0  0  0
  133.8175  134.4137  139.7323 H   0  0  0  0  0  0  0  0  0  0  0  0
  133.9586  134.1705  137.9434 H   0  0  0  0  0  0  0  0  0  0  0  0
  135.8856  133.4055  139.2918 H   0  0  0  0  0  0  0  0  0  0  0  0
  134.8151  132.0384  139.9397 H   0  0  0  0  0  0  0  0  0  0  0  0
  140.2579  132.0443  136.5905 H   0  0  0  0  0  0  0  0  0  0  0  0
  137.1294  133.5373  133.1713 H   0  0  0  0  0  0  0  0  0  0  0  0
  135.2710  132.9854  135.2026 H   0  0  0  0  0  0  0  0  0  0  0  0
  133.7241  131.1331  136.5354 H   0  0  0  0  0  0  0  0  0  0  0  0
  134.3606  130.1241  137.8410 H   0  0  0  0  0  0  0  0  0  0  0  0
  132.7959  130.7102  139.3871 H   0  0  0  0  0  0  0  0  0  0  0  0
  131.9242  131.0556  137.8987 H   0  0  0  0  0  0  0  0  0  0  0  0
  1  2  2  0
  2  3  1  0
  3  4  1  0
  4  5  2  0
  5  6  1  0
  6  7  2  0
  7  8  1  0
  7  9  1  0
  9 10  1  0
  9 11  2  0
  3 12  1  0
 12 13  1  0
 13 14  2  0
 14 15  1  0
 15 16  2  0
 16 17  1  0
 17 18  2  0
 12 19  1  0
 19 20  1  0
 20 21  1  0
 21 22  1  0
 22 23  1  0
 23 24  2  0
 24 25  1  0
 25 26  2  0
 26 27  1  0
 27 28  1  0
 27 29  2  0
 29 30  1  0
 29 31  1  0
 31 32  2  0
 32 33  1  0
 22 34  1  0
 34 35  1  0
 19  2  1  0
 33 23  1  0
 11  4  1  0
 18 13  1  0
 35 19  1  0
 32 25  1  0
  5 36  1  0
  6 37  1  0
 11 38  1  0
 12 39  1  1
 14 40  1  0
 15 41  1  0
 16 42  1  0
 17 43  1  0
 20 44  1  0
 20 45  1  0
 21 46  1  0
 21 47  1  0
 26 48  1  0
 31 49  1  0
 33 50  1  0
 34 51  1  0
 34 52  1  0
 35 53  1  0
 35 54  1  0
M  END
>  <docking_score>  (3) 
-9.202

$$$$
