
     RDKit          3D

 67 69  0  0  0  0  0  0  0  0999 V2000
  128.2641  133.9324  137.4207 C   0  0  0  0  0  0  0  0  0  0  0  0
  129.1357  134.7517  138.3388 C   0  0  0  0  0  0  0  0  0  0  0  0
  130.3081  133.9413  138.8398 C   0  0  2  0  0  0  0  0  0  0  0  0
  129.8420  132.8493  139.7533 C   0  0  0  0  0  0  0  0  0  0  0  0
  131.3468  134.7648  139.5423 C   0  0  2  0  0  0  0  0  0  0  0  0
  130.8582  136.1422  139.7234 N   0  0  0  0  0  0  0  0  0  0  0  0
  130.7343  136.7510  140.9891 C   0  0  0  0  0  0  0  0  0  0  0  0
  131.0787  136.0399  141.9774 O   0  0  0  0  0  0  0  0  0  0  0  0
  130.2672  138.0611  141.2290 N   0  0  0  0  0  0  0  0  0  0  0  0
  130.2953  138.5814  142.5853 C   0  0  0  0  0  0  0  0  0  0  0  0
  130.1426  140.0964  142.5780 C   0  0  0  0  0  0  0  0  0  0  0  0
  128.7803  140.3806  142.0465 C   0  0  0  0  0  0  0  0  0  0  0  0
  128.4765  139.6470  140.7728 C   0  0  0  0  0  0  0  0  0  0  0  0
  129.7296  138.9536  140.2231 C   0  0  0  0  0  0  0  0  0  0  0  0
  127.7308  140.1559  143.1555 C   0  0  0  0  0  0  0  0  0  0  0  0
  127.8579  141.5887  143.5169 N   0  0  0  0  0  0  0  0  0  0  0  0
  126.6192  142.1929  143.8819 C   0  0  0  0  0  0  0  0  0  0  0  0
  126.6976  143.6314  144.2986 C   0  0  0  0  0  0  0  0  0  0  0  0
  126.0058  141.3889  145.0242 C   0  0  0  0  0  0  0  0  0  0  0  0
  128.2496  141.7802  142.1273 C   0  0  1  0  0  0  0  0  0  0  0  0
  129.1419  142.8988  141.8500 C   0  0  0  0  0  0  0  0  0  0  0  0
  129.9228  143.5609  142.7544 C   0  0  0  0  0  0  0  0  0  0  0  0
  130.7547  144.6240  142.3849 C   0  0  0  0  0  0  0  0  0  0  0  0
  130.8191  145.0514  141.0720 C   0  0  0  0  0  0  0  0  0  0  0  0
  131.8651  146.3839  140.6286 Cl  0  0  0  0  0  0  0  0  0  0  0  0
  130.0389  144.3937  140.1538 C   0  0  0  0  0  0  0  0  0  0  0  0
  129.2230  143.3486  140.5255 C   0  0  0  0  0  0  0  0  0  0  0  0
  132.5425  134.8400  138.6741 C   0  0  0  0  0  0  0  0  0  0  0  0
  132.4217  134.9954  137.4535 O   0  0  0  0  0  0  0  0  0  0  0  0
  133.7885  134.7359  139.2439 O   0  0  0  0  0  0  0  0  0  0  0  0
  134.2436  135.5384  140.3131 C   0  0  0  0  0  0  0  0  0  0  0  0
  128.0222  134.5043  136.4942 H   0  0  0  0  0  0  0  0  0  0  0  0
  127.3090  133.7529  137.9694 H   0  0  0  0  0  0  0  0  0  0  0  0
  128.7312  132.9971  137.0992 H   0  0  0  0  0  0  0  0  0  0  0  0
  129.5671  135.5810  137.7277 H   0  0  0  0  0  0  0  0  0  0  0  0
  128.5871  135.1965  139.1694 H   0  0  0  0  0  0  0  0  0  0  0  0
  130.8043  133.4546  137.9712 H   0  0  0  0  0  0  0  0  0  0  0  0
  129.7655  133.2010  140.8247 H   0  0  0  0  0  0  0  0  0  0  0  0
  130.5983  132.0132  139.7781 H   0  0  0  0  0  0  0  0  0  0  0  0
  128.8449  132.4525  139.4772 H   0  0  0  0  0  0  0  0  0  0  0  0
  131.6704  134.3504  140.5247 H   0  0  0  0  0  0  0  0  0  0  0  0
  130.5964  136.6825  138.8861 H   0  0  0  0  0  0  0  0  0  0  0  0
  129.4338  138.1549  143.1348 H   0  0  0  0  0  0  0  0  0  0  0  0
  131.2524  138.2859  143.0463 H   0  0  0  0  0  0  0  0  0  0  0  0
  130.9600  140.5640  142.0374 H   0  0  0  0  0  0  0  0  0  0  0  0
  130.1900  140.3911  143.6503 H   0  0  0  0  0  0  0  0  0  0  0  0
  127.7428  138.8293  140.8961 H   0  0  0  0  0  0  0  0  0  0  0  0
  128.1010  140.3816  140.0328 H   0  0  0  0  0  0  0  0  0  0  0  0
  129.4958  138.4803  139.2739 H   0  0  0  0  0  0  0  0  0  0  0  0
  130.4746  139.7572  140.0538 H   0  0  0  0  0  0  0  0  0  0  0  0
  126.7387  139.9840  142.7374 H   0  0  0  0  0  0  0  0  0  0  0  0
  128.0700  139.5512  143.9952 H   0  0  0  0  0  0  0  0  0  0  0  0
  125.9365  142.0932  142.9887 H   0  0  0  0  0  0  0  0  0  0  0  0
  125.8519  144.1559  143.7662 H   0  0  0  0  0  0  0  0  0  0  0  0
  126.4510  143.7037  145.3896 H   0  0  0  0  0  0  0  0  0  0  0  0
  127.6430  144.1267  144.0930 H   0  0  0  0  0  0  0  0  0  0  0  0
  126.7537  140.6727  145.4563 H   0  0  0  0  0  0  0  0  0  0  0  0
  125.1657  140.7578  144.6685 H   0  0  0  0  0  0  0  0  0  0  0  0
  125.5905  142.0483  145.8142 H   0  0  0  0  0  0  0  0  0  0  0  0
  127.2836  141.8045  141.5281 H   0  0  0  0  0  0  0  0  0  0  0  0
  129.9033  143.2673  143.7906 H   0  0  0  0  0  0  0  0  0  0  0  0
  131.3756  145.1485  143.1050 H   0  0  0  0  0  0  0  0  0  0  0  0
  130.0897  144.7313  139.1234 H   0  0  0  0  0  0  0  0  0  0  0  0
  128.6285  142.8610  139.7852 H   0  0  0  0  0  0  0  0  0  0  0  0
  133.6932  135.2148  141.2205 H   0  0  0  0  0  0  0  0  0  0  0  0
  135.3354  135.4007  140.3861 H   0  0  0  0  0  0  0  0  0  0  0  0
  133.9642  136.6010  140.0721 H   0  0  0  0  0  0  0  0  0  0  0  0
  1  2  1  0
  2  3  1  0
  3  4  1  0
  3  5  1  0
  5  6  1  0
  6  7  1  0
  7  8  2  0
  7  9  1  0
  9 10  1  0
 10 11  1  0
 11 12  1  0
 12 13  1  0
 13 14  1  0
 12 15  1  0
 15 16  1  0
 16 17  1  0
 17 18  1  0
 17 19  1  0
 16 20  1  0
 20 21  1  0
 21 22  2  0
 22 23  1  0
 23 24  2  0
 24 25  1  0
 24 26  1  0
 26 27  2  0
  5 28  1  0
 28 29  2  0
 28 30  1  0
 30 31  1  0
 14  9  1  0
 27 21  1  0
 20 12  1  0
  1 32  1  0
  1 33  1  0
  1 34  1  0
  2 35  1  0
  2 36  1  0
  3 37  1  6
  4 38  1  0
  4 39  1  0
  4 40  1  0
  5 41  1  1
  6 42  1  0
 10 43  1  0
 10 44  1  0
 11 45  1  0
 11 46  1  0
 13 47  1  0
 13 48  1  0
 14 49  1  0
 14 50  1  0
 15 51  1  0
 15 52  1  0
 17 53  1  0
 18 54  1  0
 18 55  1  0
 18 56  1  0
 19 57  1  0
 19 58  1  0
 19 59  1  0
 20 60  1  6
 22 61  1  0
 23 62  1  0
 26 63  1  0
 27 64  1  0
 31 65  1  0
 31 66  1  0
 31 67  1  0
M  END
>  <docking_score>  (1) 
-6.258

$$$$

     RDKit          3D

 67 69  0  0  0  0  0  0  0  0999 V2000
  138.7795  133.3056  132.4496 C   0  0  0  0  0  0  0  0  0  0  0  0
  139.4324  132.5389  133.5720 C   0  0  0  0  0  0  0  0  0  0  0  0
  138.7479  132.8180  134.8895 C   0  0  2  0  0  0  0  0  0  0  0  0
  137.7482  133.9236  134.7402 C   0  0  0  0  0  0  0  0  0  0  0  0
  139.7005  133.1581  135.9973 C   0  0  2  0  0  0  0  0  0  0  0  0
  141.0887  132.9813  135.5386 N   0  0  0  0  0  0  0  0  0  0  0  0
  142.1245  133.8799  135.8667 C   0  0  0  0  0  0  0  0  0  0  0  0
  141.7921  134.8594  136.5956 O   0  0  0  0  0  0  0  0  0  0  0  0
  143.4695  133.7704  135.4536 N   0  0  0  0  0  0  0  0  0  0  0  0
  144.3906  134.8515  135.7601 C   0  0  0  0  0  0  0  0  0  0  0  0
  145.8314  134.3847  135.6022 C   0  0  0  0  0  0  0  0  0  0  0  0
  146.0173  134.0702  134.1580 C   0  0  0  0  0  0  0  0  0  0  0  0
  144.9380  133.1891  133.6001 C   0  0  0  0  0  0  0  0  0  0  0  0
  144.0285  132.6570  134.7150 C   0  0  0  0  0  0  0  0  0  0  0  0
  146.2227  135.3766  133.3625 C   0  0  0  0  0  0  0  0  0  0  0  0
  147.6852  135.2222  133.5552 N   0  0  0  0  0  0  0  0  0  0  0  0
  148.4506  135.6094  132.4165 C   0  0  0  0  0  0  0  0  0  0  0  0
  149.9302  135.7177  132.6363 C   0  0  0  0  0  0  0  0  0  0  0  0
  147.9333  136.9559  131.9197 C   0  0  0  0  0  0  0  0  0  0  0  0
  147.4007  133.7970  133.6494 C   0  0  1  0  0  0  0  0  0  0  0  0
  148.3149  133.0020  134.4596 C   0  0  0  0  0  0  0  0  0  0  0  0
  149.0083  133.4260  135.5575 C   0  0  0  0  0  0  0  0  0  0  0  0
  149.8609  132.5788  136.2747 C   0  0  0  0  0  0  0  0  0  0  0  0
  150.0368  131.2617  135.8942 C   0  0  0  0  0  0  0  0  0  0  0  0
  151.1084  130.2168  136.8031 Cl  0  0  0  0  0  0  0  0  0  0  0  0
  149.3452  130.8239  134.7921 C   0  0  0  0  0  0  0  0  0  0  0  0
  148.5083  131.6639  134.0921 C   0  0  0  0  0  0  0  0  0  0  0  0
  139.4847  132.1996  137.1037 C   0  0  0  0  0  0  0  0  0  0  0  0
  140.0759  132.3417  138.1801 O   0  0  0  0  0  0  0  0  0  0  0  0
  138.6172  131.1503  136.9178 O   0  0  0  0  0  0  0  0  0  0  0  0
  137.6306  130.7595  137.8495 C   0  0  0  0  0  0  0  0  0  0  0  0
  137.7352  133.5876  132.7216 H   0  0  0  0  0  0  0  0  0  0  0  0
  138.7285  132.6086  131.5794 H   0  0  0  0  0  0  0  0  0  0  0  0
  139.2999  134.2341  132.1980 H   0  0  0  0  0  0  0  0  0  0  0  0
  139.2759  131.4533  133.3620 H   0  0  0  0  0  0  0  0  0  0  0  0
  140.5058  132.7155  133.6463 H   0  0  0  0  0  0  0  0  0  0  0  0
  138.1888  131.9085  135.2022 H   0  0  0  0  0  0  0  0  0  0  0  0
  138.0341  134.6406  133.9146 H   0  0  0  0  0  0  0  0  0  0  0  0
  137.7237  134.5551  135.6742 H   0  0  0  0  0  0  0  0  0  0  0  0
  136.7304  133.5554  134.5029 H   0  0  0  0  0  0  0  0  0  0  0  0
  139.5713  134.1843  136.4118 H   0  0  0  0  0  0  0  0  0  0  0  0
  141.3098  132.1634  134.9521 H   0  0  0  0  0  0  0  0  0  0  0  0
  144.2157  135.6682  135.0332 H   0  0  0  0  0  0  0  0  0  0  0  0
  144.1972  135.1844  136.7933 H   0  0  0  0  0  0  0  0  0  0  0  0
  146.0508  133.5715  136.2876 H   0  0  0  0  0  0  0  0  0  0  0  0
  146.4476  135.2722  135.8697 H   0  0  0  0  0  0  0  0  0  0  0  0
  144.2496  133.7128  132.9116 H   0  0  0  0  0  0  0  0  0  0  0  0
  145.4217  132.3409  133.0759 H   0  0  0  0  0  0  0  0  0  0  0  0
  143.2941  131.9781  134.2916 H   0  0  0  0  0  0  0  0  0  0  0  0
  144.6883  132.0931  135.4050 H   0  0  0  0  0  0  0  0  0  0  0  0
  145.9897  135.2415  132.3060 H   0  0  0  0  0  0  0  0  0  0  0  0
  145.8958  136.2821  133.8712 H   0  0  0  0  0  0  0  0  0  0  0  0
  148.2414  134.8452  131.6126 H   0  0  0  0  0  0  0  0  0  0  0  0
  150.3084  136.4405  131.8564 H   0  0  0  0  0  0  0  0  0  0  0  0
  150.1114  136.2224  133.6206 H   0  0  0  0  0  0  0  0  0  0  0  0
  150.4799  134.7813  132.5867 H   0  0  0  0  0  0  0  0  0  0  0  0
  148.5037  137.2948  131.0150 H   0  0  0  0  0  0  0  0  0  0  0  0
  148.0846  137.7515  132.6778 H   0  0  0  0  0  0  0  0  0  0  0  0
  146.8441  136.9256  131.7097 H   0  0  0  0  0  0  0  0  0  0  0  0
  147.2942  133.4257  132.5799 H   0  0  0  0  0  0  0  0  0  0  0  0
  148.9076  134.4456  135.8902 H   0  0  0  0  0  0  0  0  0  0  0  0
  150.4104  132.9172  137.1479 H   0  0  0  0  0  0  0  0  0  0  0  0
  149.4854  129.7897  134.4939 H   0  0  0  0  0  0  0  0  0  0  0  0
  147.9873  131.2902  133.2388 H   0  0  0  0  0  0  0  0  0  0  0  0
  138.1368  130.1430  138.6207 H   0  0  0  0  0  0  0  0  0  0  0  0
  137.1733  131.6798  138.2499 H   0  0  0  0  0  0  0  0  0  0  0  0
  136.8873  130.1211  137.2970 H   0  0  0  0  0  0  0  0  0  0  0  0
  1  2  1  0
  2  3  1  0
  3  4  1  0
  3  5  1  0
  5  6  1  0
  6  7  1  0
  7  8  2  0
  7  9  1  0
  9 10  1  0
 10 11  1  0
 11 12  1  0
 12 13  1  0
 13 14  1  0
 12 15  1  0
 15 16  1  0
 16 17  1  0
 17 18  1  0
 17 19  1  0
 16 20  1  0
 20 21  1  0
 21 22  2  0
 22 23  1  0
 23 24  2  0
 24 25  1  0
 24 26  1  0
 26 27  2  0
  5 28  1  0
 28 29  2  0
 28 30  1  0
 30 31  1  0
 14  9  1  0
 27 21  1  0
 20 12  1  0
  1 32  1  0
  1 33  1  0
  1 34  1  0
  2 35  1  0
  2 36  1  0
  3 37  1  1
  4 38  1  0
  4 39  1  0
  4 40  1  0
  5 41  1  1
  6 42  1  0
 10 43  1  0
 10 44  1  0
 11 45  1  0
 11 46  1  0
 13 47  1  0
 13 48  1  0
 14 49  1  0
 14 50  1  0
 15 51  1  0
 15 52  1  0
 17 53  1  0
 18 54  1  0
 18 55  1  0
 18 56  1  0
 19 57  1  0
 19 58  1  0
 19 59  1  0
 20 60  1  6
 22 61  1  0
 23 62  1  0
 26 63  1  0
 27 64  1  0
 31 65  1  0
 31 66  1  0
 31 67  1  0
M  END
>  <docking_score>  (2) 
-5.9889999999999999

$$$$

     RDKit          3D

 67 69  0  0  0  0  0  0  0  0999 V2000
  133.0604  146.6033  141.2110 C   0  0  0  0  0  0  0  0  0  0  0  0
  132.1908  145.8313  142.1711 C   0  0  0  0  0  0  0  0  0  0  0  0
  130.9720  146.6330  142.5637 C   0  0  2  0  0  0  0  0  0  0  0  0
  130.9532  146.8736  144.0421 C   0  0  0  0  0  0  0  0  0  0  0  0
  129.6788  145.9955  142.1494 C   0  0  2  0  0  0  0  0  0  0  0  0
  129.8521  144.5378  142.0313 N   0  0  0  0  0  0  0  0  0  0  0  0
  129.0466  143.6118  142.7254 C   0  0  0  0  0  0  0  0  0  0  0  0
  128.1465  144.1098  143.4620 O   0  0  0  0  0  0  0  0  0  0  0  0
  129.1667  142.2071  142.6606 N   0  0  0  0  0  0  0  0  0  0  0  0
  128.0854  141.3834  143.1739 C   0  0  0  0  0  0  0  0  0  0  0  0
  128.2133  139.9556  142.6603 C   0  0  0  0  0  0  0  0  0  0  0  0
  129.4711  139.4090  143.2420 C   0  0  0  0  0  0  0  0  0  0  0  0
  130.6511  140.3189  143.0620 C   0  0  0  0  0  0  0  0  0  0  0  0
  130.3085  141.4898  142.1320 C   0  0  0  0  0  0  0  0  0  0  0  0
  129.2291  138.9919  144.7080 C   0  0  0  0  0  0  0  0  0  0  0  0
  128.8927  137.6296  144.2276 N   0  0  0  0  0  0  0  0  0  0  0  0
  129.3711  136.5935  145.0820 C   0  0  0  0  0  0  0  0  0  0  0  0
  128.3420  135.6024  145.5380 C   0  0  0  0  0  0  0  0  0  0  0  0
  130.0071  137.2343  146.3118 C   0  0  0  0  0  0  0  0  0  0  0  0
  129.7576  137.9446  143.0990 C   0  0  1  0  0  0  0  0  0  0  0  0
  129.4539  137.2777  141.8391 C   0  0  0  0  0  0  0  0  0  0  0  0
  129.3065  137.8723  140.6182 C   0  0  0  0  0  0  0  0  0  0  0  0
  129.0202  137.1391  139.4609 C   0  0  0  0  0  0  0  0  0  0  0  0
  128.8731  135.7656  139.5093 C   0  0  0  0  0  0  0  0  0  0  0  0
  128.5139  134.8651  138.0511 Cl  0  0  0  0  0  0  0  0  0  0  0  0
  129.0190  135.1566  140.7309 C   0  0  0  0  0  0  0  0  0  0  0  0
  129.3007  135.8852  141.8648 C   0  0  0  0  0  0  0  0  0  0  0  0
  129.3246  146.4998  140.8042 C   0  0  0  0  0  0  0  0  0  0  0  0
  129.9203  146.0860  139.8030 O   0  0  0  0  0  0  0  0  0  0  0  0
  128.3236  147.4334  140.6838 O   0  0  0  0  0  0  0  0  0  0  0  0
  128.3662  148.7233  141.2571 C   0  0  0  0  0  0  0  0  0  0  0  0
  133.9176  145.9779  140.8672 H   0  0  0  0  0  0  0  0  0  0  0  0
  133.4762  147.4653  141.7852 H   0  0  0  0  0  0  0  0  0  0  0  0
  132.5301  146.9304  140.3120 H   0  0  0  0  0  0  0  0  0  0  0  0
  131.8123  144.9351  141.6226 H   0  0  0  0  0  0  0  0  0  0  0  0
  132.7281  145.4832  143.0536 H   0  0  0  0  0  0  0  0  0  0  0  0
  131.0233  147.6280  142.0688 H   0  0  0  0  0  0  0  0  0  0  0  0
  130.0049  147.3926  144.3719 H   0  0  0  0  0  0  0  0  0  0  0  0
  131.7835  147.5795  144.3322 H   0  0  0  0  0  0  0  0  0  0  0  0
  131.0252  145.9384  144.6322 H   0  0  0  0  0  0  0  0  0  0  0  0
  128.8227  146.2168  142.8274 H   0  0  0  0  0  0  0  0  0  0  0  0
  130.5957  144.1820  141.4132 H   0  0  0  0  0  0  0  0  0  0  0  0
  128.1680  141.3569  144.2777 H   0  0  0  0  0  0  0  0  0  0  0  0
  127.1305  141.8316  142.8527 H   0  0  0  0  0  0  0  0  0  0  0  0
  128.1514  139.9284  141.5765 H   0  0  0  0  0  0  0  0  0  0  0  0
  127.3408  139.4188  143.0956 H   0  0  0  0  0  0  0  0  0  0  0  0
  130.9857  140.8018  143.9984 H   0  0  0  0  0  0  0  0  0  0  0  0
  131.4803  139.7263  142.6267 H   0  0  0  0  0  0  0  0  0  0  0  0
  131.1937  142.0985  141.9732 H   0  0  0  0  0  0  0  0  0  0  0  0
  130.0031  141.0353  141.1678 H   0  0  0  0  0  0  0  0  0  0  0  0
  130.1625  138.9476  145.2697 H   0  0  0  0  0  0  0  0  0  0  0  0
  128.3456  139.4283  145.1714 H   0  0  0  0  0  0  0  0  0  0  0  0
  130.1873  136.0589  144.5145 H   0  0  0  0  0  0  0  0  0  0  0  0
  128.8672  134.6043  145.5769 H   0  0  0  0  0  0  0  0  0  0  0  0
  128.0658  135.8335  146.5995 H   0  0  0  0  0  0  0  0  0  0  0  0
  127.4487  135.5394  144.9220 H   0  0  0  0  0  0  0  0  0  0  0  0
  130.7089  138.0582  146.0161 H   0  0  0  0  0  0  0  0  0  0  0  0
  130.6283  136.5054  146.8715 H   0  0  0  0  0  0  0  0  0  0  0  0
  129.2414  137.6061  147.0238 H   0  0  0  0  0  0  0  0  0  0  0  0
  130.8223  137.7774  143.4617 H   0  0  0  0  0  0  0  0  0  0  0  0
  129.4074  138.9411  140.5306 H   0  0  0  0  0  0  0  0  0  0  0  0
  128.9044  137.6133  138.4909 H   0  0  0  0  0  0  0  0  0  0  0  0
  128.9020  134.0781  140.7676 H   0  0  0  0  0  0  0  0  0  0  0  0
  129.4059  135.3789  142.7986 H   0  0  0  0  0  0  0  0  0  0  0  0
  127.4408  149.2495  140.9444 H   0  0  0  0  0  0  0  0  0  0  0  0
  128.4540  148.5951  142.3490 H   0  0  0  0  0  0  0  0  0  0  0  0
  129.2568  149.2519  140.8182 H   0  0  0  0  0  0  0  0  0  0  0  0
  1  2  1  0
  2  3  1  0
  3  4  1  0
  3  5  1  0
  5  6  1  0
  6  7  1  0
  7  8  2  0
  7  9  1  0
  9 10  1  0
 10 11  1  0
 11 12  1  0
 12 13  1  0
 13 14  1  0
 12 15  1  0
 15 16  1  0
 16 17  1  0
 17 18  1  0
 17 19  1  0
 16 20  1  0
 20 21  1  0
 21 22  2  0
 22 23  1  0
 23 24  2  0
 24 25  1  0
 24 26  1  0
 26 27  2  0
  5 28  1  0
 28 29  2  0
 28 30  1  0
 30 31  1  0
 14  9  1  0
 27 21  1  0
 20 12  1  0
  1 32  1  0
  1 33  1  0
  1 34  1  0
  2 35  1  0
  2 36  1  0
  3 37  1  6
  4 38  1  0
  4 39  1  0
  4 40  1  0
  5 41  1  1
  6 42  1  0
 10 43  1  0
 10 44  1  0
 11 45  1  0
 11 46  1  0
 13 47  1  0
 13 48  1  0
 14 49  1  0
 14 50  1  0
 15 51  1  0
 15 52  1  0
 17 53  1  0
 18 54  1  0
 18 55  1  0
 18 56  1  0
 19 57  1  0
 19 58  1  0
 19 59  1  0
 20 60  1  1
 22 61  1  0
 23 62  1  0
 26 63  1  0
 27 64  1  0
 31 65  1  0
 31 66  1  0
 31 67  1  0
M  END
>  <docking_score>  (3) 
-5.8410000000000002

$$$$
