
     RDKit          3D

 71 73  0  0  0  0  0  0  0  0999 V2000
  135.6038  122.5803  139.5222 C   0  0  0  0  0  0  0  0  0  0  0  0
  135.7077  124.0883  139.5680 C   0  0  0  0  0  0  0  0  0  0  0  0
  135.7949  124.5073  141.0355 C   0  0  0  0  0  0  0  0  0  0  0  0
  134.4998  124.6696  138.9852 N   0  0  0  0  0  0  0  0  0  0  0  0
  134.5255  125.3096  137.7451 C   0  0  0  0  0  0  0  0  0  0  0  0
  135.6778  125.3547  137.1645 O   0  0  0  0  0  0  0  0  0  0  0  0
  133.4195  125.9371  137.0139 C   0  0  0  0  0  0  0  0  0  0  0  0
  133.1456  127.2598  137.5081 N   0  0  0  0  0  0  0  0  0  0  0  0
  132.1674  127.4297  138.5110 C   0  0  0  0  0  0  0  0  0  0  0  0
  130.8318  127.6039  138.2816 C   0  0  0  0  0  0  0  0  0  0  0  0
  129.9153  127.7670  139.3230 C   0  0  0  0  0  0  0  0  0  0  0  0
  130.3149  127.7610  140.6274 C   0  0  0  0  0  0  0  0  0  0  0  0
  131.6499  127.5877  140.8914 C   0  0  0  0  0  0  0  0  0  0  0  0
  132.2008  127.5759  142.5405 Cl  0  0  0  0  0  0  0  0  0  0  0  0
  132.5443  127.4276  139.8662 C   0  0  0  0  0  0  0  0  0  0  0  0
  134.1347  128.5382  136.8958 S   0  0  0  0  0  0  0  0  0  0  0  0
  134.6874  128.0945  135.5768 O   0  0  0  0  0  0  0  0  0  0  0  0
  135.2768  128.7565  137.8412 O   0  0  0  0  0  0  0  0  0  0  0  0
  133.2258  130.0199  136.7070 C   0  0  0  0  0  0  0  0  0  0  0  0
  132.3223  130.1408  135.6599 C   0  0  0  0  0  0  0  0  0  0  0  0
  131.5771  131.2891  135.4848 C   0  0  0  0  0  0  0  0  0  0  0  0
  131.7109  132.3491  136.3475 C   0  0  0  0  0  0  0  0  0  0  0  0
  132.6089  132.2547  137.4068 C   0  0  0  0  0  0  0  0  0  0  0  0
  132.6976  133.3850  138.2508 N   0  0  0  0  0  0  0  0  0  0  0  0
  133.4874  134.5358  138.0445 C   0  0  0  0  0  0  0  0  0  0  0  0
  134.2009  134.6497  137.0500 O   0  0  0  0  0  0  0  0  0  0  0  0
  133.4906  135.6707  139.0302 C   0  0  0  0  0  0  0  0  0  0  0  0
  133.7327  135.1258  140.3640 N   0  0  0  0  0  0  0  0  0  0  0  0
  135.0474  134.6586  140.7455 C   0  0  0  0  0  0  0  0  0  0  0  0
  132.6622  135.0489  141.3228 C   0  0  0  0  0  0  0  0  0  0  0  0
  132.6899  135.7862  142.3398 O   0  0  0  0  0  0  0  0  0  0  0  0
  131.6031  134.1819  141.1513 O   0  0  0  0  0  0  0  0  0  0  0  0
  130.2575  134.6138  141.1476 C   0  0  0  0  0  0  0  0  0  0  0  0
  129.5517  134.3612  139.8751 C   0  0  0  0  0  0  0  0  0  0  0  0
  129.8539  135.0405  138.7282 C   0  0  0  0  0  0  0  0  0  0  0  0
  129.1916  134.8117  137.5361 C   0  0  0  0  0  0  0  0  0  0  0  0
  128.1815  133.8620  137.4835 C   0  0  0  0  0  0  0  0  0  0  0  0
  127.8675  133.1757  138.6197 C   0  0  0  0  0  0  0  0  0  0  0  0
  128.5512  133.4249  139.8133 C   0  0  0  0  0  0  0  0  0  0  0  0
  133.3448  131.0913  137.5588 C   0  0  0  0  0  0  0  0  0  0  0  0
  136.4979  122.2056  138.9547 H   0  0  0  0  0  0  0  0  0  0  0  0
  134.7048  122.2801  138.9443 H   0  0  0  0  0  0  0  0  0  0  0  0
  135.5956  122.1441  140.5309 H   0  0  0  0  0  0  0  0  0  0  0  0
  136.6287  124.4117  139.0539 H   0  0  0  0  0  0  0  0  0  0  0  0
  136.8361  124.3235  141.3659 H   0  0  0  0  0  0  0  0  0  0  0  0
  135.0448  123.9619  141.6396 H   0  0  0  0  0  0  0  0  0  0  0  0
  135.6033  125.5840  141.0988 H   0  0  0  0  0  0  0  0  0  0  0  0
  133.6301  124.5870  139.5200 H   0  0  0  0  0  0  0  0  0  0  0  0
  132.5040  125.3008  137.1016 H   0  0  0  0  0  0  0  0  0  0  0  0
  133.6409  125.9767  135.8971 H   0  0  0  0  0  0  0  0  0  0  0  0
  130.4283  127.6296  137.2882 H   0  0  0  0  0  0  0  0  0  0  0  0
  128.8506  127.9062  139.1397 H   0  0  0  0  0  0  0  0  0  0  0  0
  129.5742  127.8915  141.4295 H   0  0  0  0  0  0  0  0  0  0  0  0
  133.6036  127.2912  140.0672 H   0  0  0  0  0  0  0  0  0  0  0  0
  132.2197  129.3097  134.9867 H   0  0  0  0  0  0  0  0  0  0  0  0
  130.8650  131.4109  134.6821 H   0  0  0  0  0  0  0  0  0  0  0  0
  131.1108  133.2647  136.1986 H   0  0  0  0  0  0  0  0  0  0  0  0
  132.1247  133.3955  139.1292 H   0  0  0  0  0  0  0  0  0  0  0  0
  132.4634  136.0824  139.0370 H   0  0  0  0  0  0  0  0  0  0  0  0
  134.2505  136.4292  138.7708 H   0  0  0  0  0  0  0  0  0  0  0  0
  135.0595  133.5453  140.6736 H   0  0  0  0  0  0  0  0  0  0  0  0
  135.8377  135.0619  140.1056 H   0  0  0  0  0  0  0  0  0  0  0  0
  135.2996  134.9222  141.7960 H   0  0  0  0  0  0  0  0  0  0  0  0
  129.7604  134.1097  142.0234 H   0  0  0  0  0  0  0  0  0  0  0  0
  130.2653  135.7054  141.4068 H   0  0  0  0  0  0  0  0  0  0  0  0
  130.6480  135.7941  138.7269 H   0  0  0  0  0  0  0  0  0  0  0  0
  129.4271  135.3426  136.6383 H   0  0  0  0  0  0  0  0  0  0  0  0
  127.6504  133.6776  136.5332 H   0  0  0  0  0  0  0  0  0  0  0  0
  127.0799  132.4410  138.5596 H   0  0  0  0  0  0  0  0  0  0  0  0
  128.2370  132.8342  140.6646 H   0  0  0  0  0  0  0  0  0  0  0  0
  134.0526  130.9998  138.3588 H   0  0  0  0  0  0  0  0  0  0  0  0
  1  2  1  0
  2  3  1  0
  2  4  1  0
  4  5  1  0
  5  6  2  0
  5  7  1  0
  7  8  1  0
  8  9  1  0
  9 10  2  0
 10 11  1  0
 11 12  2  0
 12 13  1  0
 13 14  1  0
 13 15  2  0
  8 16  1  0
 16 17  2  0
 16 18  2  0
 16 19  1  0
 19 20  2  0
 20 21  1  0
 21 22  2  0
 22 23  1  0
 23 24  1  0
 24 25  1  0
 25 26  2  0
 25 27  1  0
 27 28  1  0
 28 29  1  0
 28 30  1  0
 30 31  2  0
 30 32  1  0
 32 33  1  0
 33 34  1  0
 34 35  2  0
 35 36  1  0
 36 37  2  0
 37 38  1  0
 38 39  2  0
 23 40  2  0
 15  9  1  0
 40 19  1  0
 39 34  1  0
  1 41  1  0
  1 42  1  0
  1 43  1  0
  2 44  1  0
  3 45  1  0
  3 46  1  0
  3 47  1  0
  4 48  1  0
  7 49  1  0
  7 50  1  0
 10 51  1  0
 11 52  1  0
 12 53  1  0
 15 54  1  0
 20 55  1  0
 21 56  1  0
 22 57  1  0
 24 58  1  0
 27 59  1  0
 27 60  1  0
 29 61  1  0
 29 62  1  0
 29 63  1  0
 33 64  1  0
 33 65  1  0
 35 66  1  0
 36 67  1  0
 37 68  1  0
 38 69  1  0
 39 70  1  0
 40 71  1  0
M  END
>  <docking_score>  (1) 
-6.444

$$$$

     RDKit          3D

 71 73  0  0  0  0  0  0  0  0999 V2000
  118.3942  122.9870  145.1387 C   0  0  0  0  0  0  0  0  0  0  0  0
  119.0529  122.0077  144.1932 C   0  0  0  0  0  0  0  0  0  0  0  0
  119.3367  120.7234  144.9721 C   0  0  0  0  0  0  0  0  0  0  0  0
  120.3223  122.5669  143.7323 N   0  0  0  0  0  0  0  0  0  0  0  0
  120.6981  122.5091  142.3893 C   0  0  0  0  0  0  0  0  0  0  0  0
  119.8578  121.9287  141.5995 O   0  0  0  0  0  0  0  0  0  0  0  0
  121.9189  123.0192  141.7560 C   0  0  0  0  0  0  0  0  0  0  0  0
  122.0893  124.4265  141.9996 N   0  0  0  0  0  0  0  0  0  0  0  0
  121.3447  125.3510  141.2365 C   0  0  0  0  0  0  0  0  0  0  0  0
  121.4388  126.7100  141.3418 C   0  0  0  0  0  0  0  0  0  0  0  0
  120.6702  127.5701  140.5540 C   0  0  0  0  0  0  0  0  0  0  0  0
  119.7823  127.0890  139.6369 C   0  0  0  0  0  0  0  0  0  0  0  0
  119.6645  125.7284  139.5064 C   0  0  0  0  0  0  0  0  0  0  0  0
  118.5427  125.0744  138.3501 Cl  0  0  0  0  0  0  0  0  0  0  0  0
  120.4212  124.8895  140.2812 C   0  0  0  0  0  0  0  0  0  0  0  0
  123.1315  124.8681  143.3058 S   0  0  0  0  0  0  0  0  0  0  0  0
  123.4669  123.6204  144.0627 O   0  0  0  0  0  0  0  0  0  0  0  0
  122.3889  125.7945  144.2203 O   0  0  0  0  0  0  0  0  0  0  0  0
  124.5905  125.6414  142.7308 C   0  0  0  0  0  0  0  0  0  0  0  0
  124.5110  126.5878  141.7182 C   0  0  0  0  0  0  0  0  0  0  0  0
  125.6380  127.2293  141.2462 C   0  0  0  0  0  0  0  0  0  0  0  0
  126.8757  126.9462  141.7692 C   0  0  0  0  0  0  0  0  0  0  0  0
  126.9845  126.0020  142.7862 C   0  0  0  0  0  0  0  0  0  0  0  0
  128.2891  125.7582  143.2727 N   0  0  0  0  0  0  0  0  0  0  0  0
  129.1772  124.7488  142.8450 C   0  0  0  0  0  0  0  0  0  0  0  0
  128.8636  123.9572  141.9583 O   0  0  0  0  0  0  0  0  0  0  0  0
  130.5433  124.5979  143.4539 C   0  0  0  0  0  0  0  0  0  0  0  0
  131.4099  125.6427  142.9134 N   0  0  0  0  0  0  0  0  0  0  0  0
  132.3941  126.2942  143.7496 C   0  0  0  0  0  0  0  0  0  0  0  0
  131.2982  126.0378  141.5341 C   0  0  0  0  0  0  0  0  0  0  0  0
  130.7321  127.1219  141.2463 O   0  0  0  0  0  0  0  0  0  0  0  0
  131.7993  125.2519  140.5172 O   0  0  0  0  0  0  0  0  0  0  0  0
  131.8642  125.6915  139.1756 C   0  0  0  0  0  0  0  0  0  0  0  0
  133.1937  125.5231  138.5547 C   0  0  0  0  0  0  0  0  0  0  0  0
  134.2437  124.9607  139.2249 C   0  0  0  0  0  0  0  0  0  0  0  0
  135.4917  124.8066  138.6498 C   0  0  0  0  0  0  0  0  0  0  0  0
  135.7040  125.2323  137.3464 C   0  0  0  0  0  0  0  0  0  0  0  0
  134.6663  125.7962  136.6640 C   0  0  0  0  0  0  0  0  0  0  0  0
  133.4135  125.9415  137.2671 C   0  0  0  0  0  0  0  0  0  0  0  0
  125.8377  125.3725  143.2406 C   0  0  0  0  0  0  0  0  0  0  0  0
  118.1792  122.4315  146.0911 H   0  0  0  0  0  0  0  0  0  0  0  0
  117.4164  123.3123  144.7262 H   0  0  0  0  0  0  0  0  0  0  0  0
  119.0457  123.8465  145.3500 H   0  0  0  0  0  0  0  0  0  0  0  0
  118.3635  121.7723  143.3646 H   0  0  0  0  0  0  0  0  0  0  0  0
  120.4073  120.7437  145.2556 H   0  0  0  0  0  0  0  0  0  0  0  0
  119.0636  119.8360  144.3695 H   0  0  0  0  0  0  0  0  0  0  0  0
  118.7414  120.7388  145.8916 H   0  0  0  0  0  0  0  0  0  0  0  0
  120.9267  123.0074  144.4323 H   0  0  0  0  0  0  0  0  0  0  0  0
  121.8786  122.8255  140.6552 H   0  0  0  0  0  0  0  0  0  0  0  0
  122.8349  122.4474  142.1190 H   0  0  0  0  0  0  0  0  0  0  0  0
  122.1045  127.1773  142.0410 H   0  0  0  0  0  0  0  0  0  0  0  0
  120.7452  128.6535  140.6385 H   0  0  0  0  0  0  0  0  0  0  0  0
  119.1885  127.7865  139.0285 H   0  0  0  0  0  0  0  0  0  0  0  0
  120.3325  123.8106  140.1847 H   0  0  0  0  0  0  0  0  0  0  0  0
  123.5411  126.8073  141.3111 H   0  0  0  0  0  0  0  0  0  0  0  0
  125.6069  127.9715  140.4622 H   0  0  0  0  0  0  0  0  0  0  0  0
  127.7725  127.4642  141.3841 H   0  0  0  0  0  0  0  0  0  0  0  0
  128.6609  126.3799  144.0311 H   0  0  0  0  0  0  0  0  0  0  0  0
  130.9438  123.6329  143.0892 H   0  0  0  0  0  0  0  0  0  0  0  0
  130.5025  124.6515  144.5564 H   0  0  0  0  0  0  0  0  0  0  0  0
  132.4165  127.3783  143.4867 H   0  0  0  0  0  0  0  0  0  0  0  0
  132.1706  126.1944  144.8157 H   0  0  0  0  0  0  0  0  0  0  0  0
  133.4187  125.8951  143.5830 H   0  0  0  0  0  0  0  0  0  0  0  0
  131.0563  125.1367  138.6210 H   0  0  0  0  0  0  0  0  0  0  0  0
  131.5372  126.7647  139.1686 H   0  0  0  0  0  0  0  0  0  0  0  0
  134.1156  124.6073  140.2532 H   0  0  0  0  0  0  0  0  0  0  0  0
  136.3139  124.3668  139.1732 H   0  0  0  0  0  0  0  0  0  0  0  0
  136.6996  125.1113  136.8847 H   0  0  0  0  0  0  0  0  0  0  0  0
  134.8499  126.1207  135.6518 H   0  0  0  0  0  0  0  0  0  0  0  0
  132.6484  126.3985  136.6521 H   0  0  0  0  0  0  0  0  0  0  0  0
  125.8974  124.6320  144.0135 H   0  0  0  0  0  0  0  0  0  0  0  0
  1  2  1  0
  2  3  1  0
  2  4  1  0
  4  5  1  0
  5  6  2  0
  5  7  1  0
  7  8  1  0
  8  9  1  0
  9 10  2  0
 10 11  1  0
 11 12  2  0
 12 13  1  0
 13 14  1  0
 13 15  2  0
  8 16  1  0
 16 17  2  0
 16 18  2  0
 16 19  1  0
 19 20  2  0
 20 21  1  0
 21 22  2  0
 22 23  1  0
 23 24  1  0
 24 25  1  0
 25 26  2  0
 25 27  1  0
 27 28  1  0
 28 29  1  0
 28 30  1  0
 30 31  2  0
 30 32  1  0
 32 33  1  0
 33 34  1  0
 34 35  2  0
 35 36  1  0
 36 37  2  0
 37 38  1  0
 38 39  2  0
 23 40  2  0
 15  9  1  0
 40 19  1  0
 39 34  1  0
  1 41  1  0
  1 42  1  0
  1 43  1  0
  2 44  1  0
  3 45  1  0
  3 46  1  0
  3 47  1  0
  4 48  1  0
  7 49  1  0
  7 50  1  0
 10 51  1  0
 11 52  1  0
 12 53  1  0
 15 54  1  0
 20 55  1  0
 21 56  1  0
 22 57  1  0
 24 58  1  0
 27 59  1  0
 27 60  1  0
 29 61  1  0
 29 62  1  0
 29 63  1  0
 33 64  1  0
 33 65  1  0
 35 66  1  0
 36 67  1  0
 37 68  1  0
 38 69  1  0
 39 70  1  0
 40 71  1  0
M  END
>  <docking_score>  (2) 
-6.367

$$$$

     RDKit          3D

 71 73  0  0  0  0  0  0  0  0999 V2000
  130.0609  130.9492  136.5127 C   0  0  0  0  0  0  0  0  0  0  0  0
  129.7939  132.2292  137.2724 C   0  0  0  0  0  0  0  0  0  0  0  0
  131.0237  133.1254  137.1266 C   0  0  0  0  0  0  0  0  0  0  0  0
  129.6069  131.9160  138.6879 N   0  0  0  0  0  0  0  0  0  0  0  0
  128.6184  132.5435  139.4476 C   0  0  0  0  0  0  0  0  0  0  0  0
  127.8984  133.4112  138.8187 O   0  0  0  0  0  0  0  0  0  0  0  0
  128.2884  132.3490  140.8636 C   0  0  0  0  0  0  0  0  0  0  0  0
  129.4737  132.1942  141.6635 N   0  0  0  0  0  0  0  0  0  0  0  0
  130.2614  133.3293  141.9513 C   0  0  0  0  0  0  0  0  0  0  0  0
  129.8813  134.3622  142.7609 C   0  0  0  0  0  0  0  0  0  0  0  0
  130.7119  135.4586  143.0039 C   0  0  0  0  0  0  0  0  0  0  0  0
  131.9501  135.5499  142.4386 C   0  0  0  0  0  0  0  0  0  0  0  0
  132.3618  134.5284  141.6207 C   0  0  0  0  0  0  0  0  0  0  0  0
  133.9324  134.6071  140.8790 Cl  0  0  0  0  0  0  0  0  0  0  0  0
  131.5434  133.4551  141.3863 C   0  0  0  0  0  0  0  0  0  0  0  0
  129.7773  130.6186  142.3059 S   0  0  0  0  0  0  0  0  0  0  0  0
  128.5448  130.1782  143.0333 O   0  0  0  0  0  0  0  0  0  0  0  0
  130.9037  130.7102  143.2901 O   0  0  0  0  0  0  0  0  0  0  0  0
  130.1796  129.4767  141.0444 C   0  0  0  0  0  0  0  0  0  0  0  0
  129.1652  128.7807  140.4011 C   0  0  0  0  0  0  0  0  0  0  0  0
  129.4412  127.8807  139.3921 C   0  0  0  0  0  0  0  0  0  0  0  0
  130.7352  127.6485  138.9954 C   0  0  0  0  0  0  0  0  0  0  0  0
  131.7721  128.3334  139.6226 C   0  0  0  0  0  0  0  0  0  0  0  0
  133.0775  128.0408  139.1663 N   0  0  0  0  0  0  0  0  0  0  0  0
  133.7160  128.5753  138.0274 C   0  0  0  0  0  0  0  0  0  0  0  0
  133.1491  129.3899  137.3020 O   0  0  0  0  0  0  0  0  0  0  0  0
  135.1148  128.1726  137.6521 C   0  0  0  0  0  0  0  0  0  0  0  0
  135.0914  126.7844  137.1970 N   0  0  0  0  0  0  0  0  0  0  0  0
  134.8875  126.4664  135.8008 C   0  0  0  0  0  0  0  0  0  0  0  0
  135.2749  125.7090  138.1355 C   0  0  0  0  0  0  0  0  0  0  0  0
  135.6052  124.5720  137.7149 O   0  0  0  0  0  0  0  0  0  0  0  0
  135.0961  125.8972  139.4903 O   0  0  0  0  0  0  0  0  0  0  0  0
  134.7258  124.8491  140.3630 C   0  0  0  0  0  0  0  0  0  0  0  0
  133.3220  124.9168  140.8172 C   0  0  0  0  0  0  0  0  0  0  0  0
  132.3187  124.2394  140.1827 C   0  0  0  0  0  0  0  0  0  0  0  0
  131.0022  124.3046  140.6007 C   0  0  0  0  0  0  0  0  0  0  0  0
  130.6692  125.0804  141.7017 C   0  0  0  0  0  0  0  0  0  0  0  0
  131.6591  125.7631  142.3456 C   0  0  0  0  0  0  0  0  0  0  0  0
  132.9830  125.6816  141.9041 C   0  0  0  0  0  0  0  0  0  0  0  0
  131.4671  129.2303  140.6328 C   0  0  0  0  0  0  0  0  0  0  0  0
  129.0699  130.5761  136.1375 H   0  0  0  0  0  0  0  0  0  0  0  0
  130.4577  130.1753  137.2024 H   0  0  0  0  0  0  0  0  0  0  0  0
  130.7396  131.1158  135.6644 H   0  0  0  0  0  0  0  0  0  0  0  0
  128.9259  132.7476  136.8309 H   0  0  0  0  0  0  0  0  0  0  0  0
  131.0707  133.4450  136.0671 H   0  0  0  0  0  0  0  0  0  0  0  0
  131.9342  132.5916  137.4601 H   0  0  0  0  0  0  0  0  0  0  0  0
  130.8755  134.0177  137.7445 H   0  0  0  0  0  0  0  0  0  0  0  0
  130.2274  131.2145  139.1027 H   0  0  0  0  0  0  0  0  0  0  0  0
  127.6336  131.4492  140.9753 H   0  0  0  0  0  0  0  0  0  0  0  0
  127.6627  133.2154  141.2581 H   0  0  0  0  0  0  0  0  0  0  0  0
  128.9227  134.3793  143.2417 H   0  0  0  0  0  0  0  0  0  0  0  0
  130.4084  136.2821  143.6491 H   0  0  0  0  0  0  0  0  0  0  0  0
  132.5854  136.4233  142.6453 H   0  0  0  0  0  0  0  0  0  0  0  0
  131.8618  132.6427  140.7384 H   0  0  0  0  0  0  0  0  0  0  0  0
  128.1537  128.9647  140.7136 H   0  0  0  0  0  0  0  0  0  0  0  0
  128.6734  127.3273  138.8718 H   0  0  0  0  0  0  0  0  0  0  0  0
  130.9465  126.9252  138.1873 H   0  0  0  0  0  0  0  0  0  0  0  0
  133.6544  127.3582  139.7153 H   0  0  0  0  0  0  0  0  0  0  0  0
  135.7071  128.1905  138.5867 H   0  0  0  0  0  0  0  0  0  0  0  0
  135.5308  128.8355  136.8727 H   0  0  0  0  0  0  0  0  0  0  0  0
  134.3470  125.4924  135.7372 H   0  0  0  0  0  0  0  0  0  0  0  0
  134.3028  127.2290  135.2781 H   0  0  0  0  0  0  0  0  0  0  0  0
  135.8472  126.3453  135.2520 H   0  0  0  0  0  0  0  0  0  0  0  0
  134.9577  123.8892  139.8218 H   0  0  0  0  0  0  0  0  0  0  0  0
  135.4418  124.8763  141.2264 H   0  0  0  0  0  0  0  0  0  0  0  0
  132.5409  123.6122  139.3134 H   0  0  0  0  0  0  0  0  0  0  0  0
  130.2164  123.7751  140.1050 H   0  0  0  0  0  0  0  0  0  0  0  0
  129.6188  125.1351  142.0373 H   0  0  0  0  0  0  0  0  0  0  0  0
  131.3815  126.3606  143.1998 H   0  0  0  0  0  0  0  0  0  0  0  0
  133.7026  126.2552  142.4747 H   0  0  0  0  0  0  0  0  0  0  0  0
  132.2492  129.7597  141.1402 H   0  0  0  0  0  0  0  0  0  0  0  0
  1  2  1  0
  2  3  1  0
  2  4  1  0
  4  5  1  0
  5  6  2  0
  5  7  1  0
  7  8  1  0
  8  9  1  0
  9 10  2  0
 10 11  1  0
 11 12  2  0
 12 13  1  0
 13 14  1  0
 13 15  2  0
  8 16  1  0
 16 17  2  0
 16 18  2  0
 16 19  1  0
 19 20  2  0
 20 21  1  0
 21 22  2  0
 22 23  1  0
 23 24  1  0
 24 25  1  0
 25 26  2  0
 25 27  1  0
 27 28  1  0
 28 29  1  0
 28 30  1  0
 30 31  2  0
 30 32  1  0
 32 33  1  0
 33 34  1  0
 34 35  2  0
 35 36  1  0
 36 37  2  0
 37 38  1  0
 38 39  2  0
 23 40  2  0
 15  9  1  0
 40 19  1  0
 39 34  1  0
  1 41  1  0
  1 42  1  0
  1 43  1  0
  2 44  1  0
  3 45  1  0
  3 46  1  0
  3 47  1  0
  4 48  1  0
  7 49  1  0
  7 50  1  0
 10 51  1  0
 11 52  1  0
 12 53  1  0
 15 54  1  0
 20 55  1  0
 21 56  1  0
 22 57  1  0
 24 58  1  0
 27 59  1  0
 27 60  1  0
 29 61  1  0
 29 62  1  0
 29 63  1  0
 33 64  1  0
 33 65  1  0
 35 66  1  0
 36 67  1  0
 37 68  1  0
 38 69  1  0
 39 70  1  0
 40 71  1  0
M  END
>  <docking_score>  (3) 
-6.1779999999999999

$$$$
