
     RDKit          3D

 56 60  0  0  0  0  0  0  0  0999 V2000
  135.8215  121.3159  141.3331 O   0  0  0  0  0  0  0  0  0  0  0  0
  136.1814  121.6554  140.1815 C   0  0  0  0  0  0  0  0  0  0  0  0
  136.1084  122.9906  139.7844 N   0  0  0  0  0  0  0  0  0  0  0  0
  135.6338  124.0220  140.6160 C   0  0  0  0  0  0  0  0  0  0  0  0
  134.3283  124.4344  140.6715 C   0  0  0  0  0  0  0  0  0  0  0  0
  133.9102  125.4524  141.5508 C   0  0  0  0  0  0  0  0  0  0  0  0
  134.7993  126.0780  142.3936 C   0  0  0  0  0  0  0  0  0  0  0  0
  134.3594  127.0507  143.2245 F   0  0  0  0  0  0  0  0  0  0  0  0
  136.1134  125.6765  142.3503 C   0  0  0  0  0  0  0  0  0  0  0  0
  136.9913  126.2882  143.1767 F   0  0  0  0  0  0  0  0  0  0  0  0
  136.5119  124.6851  141.4921 C   0  0  0  0  0  0  0  0  0  0  0  0
  136.6533  120.6002  139.3480 N   0  0  0  0  0  0  0  0  0  0  0  0
  138.0394  120.3594  139.2011 C   0  0  0  0  0  0  0  0  0  0  0  0
  138.4471  118.9879  138.7654 C   0  0  0  0  0  0  0  0  0  0  0  0
  137.4571  118.3478  137.8194 C   0  0  0  0  0  0  0  0  0  0  0  0
  136.3910  119.2914  137.3897 C   0  0  0  0  0  0  0  0  0  0  0  0
  135.6842  119.7852  138.6611 C   0  0  0  0  0  0  0  0  0  0  0  0
  137.0400  117.0142  138.2475 C   0  0  0  0  0  0  0  0  0  0  0  0
  136.1701  116.6183  139.0707 O   0  0  0  0  0  0  0  0  0  0  0  0
  137.9867  116.4105  137.3831 N   0  0  0  0  0  0  0  0  0  0  0  0
  138.5962  115.1388  137.2834 C   0  0  0  0  0  0  0  0  0  0  0  0
  138.5631  114.4356  136.0741 C   0  0  0  0  0  0  0  0  0  0  0  0
  139.1321  113.2058  135.9158 C   0  0  0  0  0  0  0  0  0  0  0  0
  139.7686  112.6334  137.0009 C   0  0  0  0  0  0  0  0  0  0  0  0
  139.8334  113.2876  138.2311 C   0  0  0  0  0  0  0  0  0  0  0  0
  140.6491  112.5420  139.6030 Cl  0  0  0  0  0  0  0  0  0  0  0  0
  139.2404  114.5204  138.3199 C   0  0  0  0  0  0  0  0  0  0  0  0
  138.0651  117.6512  136.6479 C   0  0  1  0  0  0  0  0  0  0  0  0
  137.3531  117.6392  135.3720 C   0  0  0  0  0  0  0  0  0  0  0  0
  136.0573  117.1152  135.3162 C   0  0  0  0  0  0  0  0  0  0  0  0
  135.3085  117.0693  134.1774 C   0  0  0  0  0  0  0  0  0  0  0  0
  135.8350  117.5597  133.0040 C   0  0  0  0  0  0  0  0  0  0  0  0
  137.1103  118.0783  133.0498 C   0  0  0  0  0  0  0  0  0  0  0  0
  137.8209  118.1054  134.2039 N   0  0  0  0  0  4  0  0  0  0  0  0
  139.0774  118.6708  134.1235 O   0  0  0  0  0  1  0  0  0  0  0  0
  136.4131  123.2849  138.8116 H   0  0  0  0  0  0  0  0  0  0  0  0
  133.5722  123.9985  140.0231 H   0  0  0  0  0  0  0  0  0  0  0  0
  132.8615  125.7563  141.5677 H   0  0  0  0  0  0  0  0  0  0  0  0
  137.5444  124.3608  141.4498 H   0  0  0  0  0  0  0  0  0  0  0  0
  138.5436  120.6122  140.1786 H   0  0  0  0  0  0  0  0  0  0  0  0
  138.4957  121.0784  138.4588 H   0  0  0  0  0  0  0  0  0  0  0  0
  139.4396  118.9785  138.2762 H   0  0  0  0  0  0  0  0  0  0  0  0
  138.5168  118.3428  139.6601 H   0  0  0  0  0  0  0  0  0  0  0  0
  135.6553  118.7734  136.7720 H   0  0  0  0  0  0  0  0  0  0  0  0
  136.8037  120.1990  136.9117 H   0  0  0  0  0  0  0  0  0  0  0  0
  135.4601  118.8847  139.2949 H   0  0  0  0  0  0  0  0  0  0  0  0
  134.7691  120.3364  138.3598 H   0  0  0  0  0  0  0  0  0  0  0  0
  138.0614  114.8785  135.2057 H   0  0  0  0  0  0  0  0  0  0  0  0
  139.0939  112.6810  134.9713 H   0  0  0  0  0  0  0  0  0  0  0  0
  140.2461  111.6615  136.9641 H   0  0  0  0  0  0  0  0  0  0  0  0
  139.3021  115.0136  139.2816 H   0  0  0  0  0  0  0  0  0  0  0  0
  139.1287  117.9959  136.4913 H   0  0  0  0  0  0  0  0  0  0  0  0
  135.6022  116.7178  136.2191 H   0  0  0  0  0  0  0  0  0  0  0  0
  134.3109  116.6587  134.1679 H   0  0  0  0  0  0  0  0  0  0  0  0
  135.2574  117.5373  132.0660 H   0  0  0  0  0  0  0  0  0  0  0  0
  137.5430  118.4695  132.1367 H   0  0  0  0  0  0  0  0  0  0  0  0
  1  2  2  0
  2  3  1  0
  3  4  1  0
  4  5  2  0
  5  6  1  0
  6  7  2  0
  7  8  1  0
  7  9  1  0
  9 10  1  0
  9 11  2  0
  2 12  1  0
 12 13  1  0
 13 14  1  0
 14 15  1  0
 15 16  1  0
 16 17  1  0
 15 18  1  0
 18 19  2  0
 18 20  1  0
 20 21  1  0
 21 22  2  0
 22 23  1  0
 23 24  2  0
 24 25  1  0
 25 26  1  0
 25 27  2  0
 20 28  1  0
 28 29  1  0
 29 30  2  0
 30 31  1  0
 31 32  2  0
 32 33  1  0
 33 34  2  0
 34 35  1  0
 11  4  1  0
 17 12  1  0
 27 21  1  0
 34 29  1  0
 28 15  1  0
  3 36  1  0
  5 37  1  0
  6 38  1  0
 11 39  1  0
 13 40  1  0
 13 41  1  0
 14 42  1  0
 14 43  1  0
 16 44  1  0
 16 45  1  0
 17 46  1  0
 17 47  1  0
 22 48  1  0
 23 49  1  0
 24 50  1  0
 27 51  1  0
 28 52  1  6
 30 53  1  0
 31 54  1  0
 32 55  1  0
 33 56  1  0
M  CHG  2  34   1  35  -1
M  END
>  <docking_score>  (1) 
-9.4009999999999998

$$$$

     RDKit          3D

 56 60  0  0  0  0  0  0  0  0999 V2000
  135.1246  124.4017  138.2234 O   0  0  0  0  0  0  0  0  0  0  0  0
  134.5881  124.7957  139.2856 C   0  0  0  0  0  0  0  0  0  0  0  0
  134.4744  123.9372  140.3792 N   0  0  0  0  0  0  0  0  0  0  0  0
  134.9311  122.6061  140.3708 C   0  0  0  0  0  0  0  0  0  0  0  0
  134.1572  121.5230  140.0462 C   0  0  0  0  0  0  0  0  0  0  0  0
  134.6837  120.2165  140.0250 C   0  0  0  0  0  0  0  0  0  0  0  0
  136.0024  119.9728  140.3313 C   0  0  0  0  0  0  0  0  0  0  0  0
  136.4713  118.7044  140.2989 F   0  0  0  0  0  0  0  0  0  0  0  0
  136.7928  121.0487  140.6597 C   0  0  0  0  0  0  0  0  0  0  0  0
  138.0897  120.8144  140.9616 F   0  0  0  0  0  0  0  0  0  0  0  0
  136.2728  122.3164  140.6777 C   0  0  0  0  0  0  0  0  0  0  0  0
  134.1243  126.1431  139.2777 N   0  0  0  0  0  0  0  0  0  0  0  0
  135.0027  127.2121  139.5717 C   0  0  0  0  0  0  0  0  0  0  0  0
  134.6213  128.5641  139.0584 C   0  0  0  0  0  0  0  0  0  0  0  0
  133.1269  128.7893  139.0348 C   0  0  0  0  0  0  0  0  0  0  0  0
  132.3766  127.6883  139.6955 C   0  0  0  0  0  0  0  0  0  0  0  0
  132.7404  126.3886  138.9618 C   0  0  0  0  0  0  0  0  0  0  0  0
  132.6399  129.2475  137.7354 C   0  0  0  0  0  0  0  0  0  0  0  0
  132.3394  128.6342  136.6749 O   0  0  0  0  0  0  0  0  0  0  0  0
  132.6574  130.5951  138.1732 N   0  0  0  0  0  0  0  0  0  0  0  0
  132.6540  131.8614  137.5444 C   0  0  0  0  0  0  0  0  0  0  0  0
  132.2221  131.9879  136.2196 C   0  0  0  0  0  0  0  0  0  0  0  0
  132.1961  133.1813  135.5590 C   0  0  0  0  0  0  0  0  0  0  0  0
  132.6157  134.3127  136.2328 C   0  0  0  0  0  0  0  0  0  0  0  0
  133.0565  134.2475  137.5545 C   0  0  0  0  0  0  0  0  0  0  0  0
  133.5875  135.7006  138.3971 Cl  0  0  0  0  0  0  0  0  0  0  0  0
  133.0566  133.0163  138.1575 C   0  0  0  0  0  0  0  0  0  0  0  0
  132.6826  130.1223  139.5378 C   0  0  1  0  0  0  0  0  0  0  0  0
  131.4042  130.2356  140.2362 C   0  0  0  0  0  0  0  0  0  0  0  0
  130.2517  130.5488  139.5079 C   0  0  0  0  0  0  0  0  0  0  0  0
  129.0130  130.6660  140.0661 C   0  0  0  0  0  0  0  0  0  0  0  0
  128.8622  130.4701  141.4201 C   0  0  0  0  0  0  0  0  0  0  0  0
  129.9918  130.1606  142.1451 C   0  0  0  0  0  0  0  0  0  0  0  0
  131.2053  130.0530  141.5507 N   0  0  0  0  0  4  0  0  0  0  0  0
  132.2545  129.7162  142.3818 O   0  0  0  0  0  1  0  0  0  0  0  0
  134.0229  124.2650  141.2817 H   0  0  0  0  0  0  0  0  0  0  0  0
  133.1020  121.6356  139.8097 H   0  0  0  0  0  0  0  0  0  0  0  0
  134.0373  119.3765  139.7623 H   0  0  0  0  0  0  0  0  0  0  0  0
  136.8864  123.1712  140.9348 H   0  0  0  0  0  0  0  0  0  0  0  0
  136.0283  126.9369  139.1895 H   0  0  0  0  0  0  0  0  0  0  0  0
  135.1422  127.3224  140.6873 H   0  0  0  0  0  0  0  0  0  0  0  0
  135.0792  129.3826  139.6456 H   0  0  0  0  0  0  0  0  0  0  0  0
  134.9884  128.6607  138.0204 H   0  0  0  0  0  0  0  0  0  0  0  0
  131.3020  127.8478  139.5902 H   0  0  0  0  0  0  0  0  0  0  0  0
  132.6963  127.5339  140.7426 H   0  0  0  0  0  0  0  0  0  0  0  0
  132.6548  126.5874  137.8591 H   0  0  0  0  0  0  0  0  0  0  0  0
  132.0536  125.5885  139.3082 H   0  0  0  0  0  0  0  0  0  0  0  0
  131.8868  131.0981  135.6738 H   0  0  0  0  0  0  0  0  0  0  0  0
  131.8583  133.2548  134.5347 H   0  0  0  0  0  0  0  0  0  0  0  0
  132.6284  135.2994  135.7854 H   0  0  0  0  0  0  0  0  0  0  0  0
  133.4003  132.9853  139.1835 H   0  0  0  0  0  0  0  0  0  0  0  0
  133.4990  130.6063  140.1492 H   0  0  0  0  0  0  0  0  0  0  0  0
  130.3244  130.7111  138.4362 H   0  0  0  0  0  0  0  0  0  0  0  0
  128.1430  130.9086  139.4758 H   0  0  0  0  0  0  0  0  0  0  0  0
  127.8759  130.5580  141.9031 H   0  0  0  0  0  0  0  0  0  0  0  0
  129.8944  130.0025  143.2125 H   0  0  0  0  0  0  0  0  0  0  0  0
  1  2  2  0
  2  3  1  0
  3  4  1  0
  4  5  2  0
  5  6  1  0
  6  7  2  0
  7  8  1  0
  7  9  1  0
  9 10  1  0
  9 11  2  0
  2 12  1  0
 12 13  1  0
 13 14  1  0
 14 15  1  0
 15 16  1  0
 16 17  1  0
 15 18  1  0
 18 19  2  0
 18 20  1  0
 20 21  1  0
 21 22  2  0
 22 23  1  0
 23 24  2  0
 24 25  1  0
 25 26  1  0
 25 27  2  0
 20 28  1  0
 28 29  1  0
 29 30  2  0
 30 31  1  0
 31 32  2  0
 32 33  1  0
 33 34  2  0
 34 35  1  0
 11  4  1  0
 17 12  1  0
 27 21  1  0
 34 29  1  0
 28 15  1  0
  3 36  1  0
  5 37  1  0
  6 38  1  0
 11 39  1  0
 13 40  1  0
 13 41  1  0
 14 42  1  0
 14 43  1  0
 16 44  1  0
 16 45  1  0
 17 46  1  0
 17 47  1  0
 22 48  1  0
 23 49  1  0
 24 50  1  0
 27 51  1  0
 28 52  1  1
 30 53  1  0
 31 54  1  0
 32 55  1  0
 33 56  1  0
M  CHG  2  34   1  35  -1
M  END
>  <docking_score>  (2) 
-8.7509999999999994

$$$$

     RDKit          3D

 56 60  0  0  0  0  0  0  0  0999 V2000
  137.6028  131.7658  136.6492 O   0  0  0  0  0  0  0  0  0  0  0  0
  136.6629  132.4341  136.1582 C   0  0  0  0  0  0  0  0  0  0  0  0
  136.9141  133.3814  135.1656 N   0  0  0  0  0  0  0  0  0  0  0  0
  138.1996  133.6551  134.6626 C   0  0  0  0  0  0  0  0  0  0  0  0
  139.2639  134.0516  135.4291 C   0  0  0  0  0  0  0  0  0  0  0  0
  140.5362  134.2787  134.8686 C   0  0  0  0  0  0  0  0  0  0  0  0
  140.7637  134.1116  133.5222 C   0  0  0  0  0  0  0  0  0  0  0  0
  141.9998  134.3385  133.0214 F   0  0  0  0  0  0  0  0  0  0  0  0
  139.7063  133.7145  132.7386 C   0  0  0  0  0  0  0  0  0  0  0  0
  139.9248  133.5489  131.4147 F   0  0  0  0  0  0  0  0  0  0  0  0
  138.4719  133.4954  133.2919 C   0  0  0  0  0  0  0  0  0  0  0  0
  135.3679  132.1515  136.6815 N   0  0  0  0  0  0  0  0  0  0  0  0
  134.4008  131.4816  135.8961 C   0  0  0  0  0  0  0  0  0  0  0  0
  133.3041  130.7751  136.6276 C   0  0  0  0  0  0  0  0  0  0  0  0
  132.8986  131.4730  137.9055 C   0  0  0  0  0  0  0  0  0  0  0  0
  133.5520  132.8000  138.0595 C   0  0  0  0  0  0  0  0  0  0  0  0
  135.0696  132.5635  138.0292 C   0  0  0  0  0  0  0  0  0  0  0  0
  132.9022  130.5848  139.0660 C   0  0  0  0  0  0  0  0  0  0  0  0
  133.8224  130.1932  139.8347 O   0  0  0  0  0  0  0  0  0  0  0  0
  131.5058  130.3765  138.9455 N   0  0  0  0  0  0  0  0  0  0  0  0
  130.5839  129.4140  139.4173 C   0  0  0  0  0  0  0  0  0  0  0  0
  130.1642  128.3730  138.5820 C   0  0  0  0  0  0  0  0  0  0  0  0
  129.2774  127.4154  138.9791 C   0  0  0  0  0  0  0  0  0  0  0  0
  128.7742  127.4806  140.2646 C   0  0  0  0  0  0  0  0  0  0  0  0
  129.1565  128.4954  141.1419 C   0  0  0  0  0  0  0  0  0  0  0  0
  128.5042  128.5622  142.7770 Cl  0  0  0  0  0  0  0  0  0  0  0  0
  130.0508  129.4246  140.6773 C   0  0  0  0  0  0  0  0  0  0  0  0
  131.4264  131.5673  138.1320 C   0  0  1  0  0  0  0  0  0  0  0  0
  130.8806  132.7324  138.8246 C   0  0  0  0  0  0  0  0  0  0  0  0
  131.0850  132.8679  140.2018 C   0  0  0  0  0  0  0  0  0  0  0  0
  130.6254  133.9223  140.9344 C   0  0  0  0  0  0  0  0  0  0  0  0
  129.9179  134.9222  140.3066 C   0  0  0  0  0  0  0  0  0  0  0  0
  129.7125  134.7973  138.9503 C   0  0  0  0  0  0  0  0  0  0  0  0
  130.1872  133.7323  138.2590 N   0  0  0  0  0  4  0  0  0  0  0  0
  129.9347  133.7350  136.9020 O   0  0  0  0  0  1  0  0  0  0  0  0
  136.1228  133.9492  134.7446 H   0  0  0  0  0  0  0  0  0  0  0  0
  139.1560  134.2210  136.4976 H   0  0  0  0  0  0  0  0  0  0  0  0
  141.3617  134.5948  135.5097 H   0  0  0  0  0  0  0  0  0  0  0  0
  137.6319  133.1822  132.6840 H   0  0  0  0  0  0  0  0  0  0  0  0
  134.9401  130.7520  135.2249 H   0  0  0  0  0  0  0  0  0  0  0  0
  133.8977  132.1974  135.1814 H   0  0  0  0  0  0  0  0  0  0  0  0
  132.3968  130.6483  136.0069 H   0  0  0  0  0  0  0  0  0  0  0  0
  133.6591  129.7643  136.8991 H   0  0  0  0  0  0  0  0  0  0  0  0
  133.2960  133.2367  139.0264 H   0  0  0  0  0  0  0  0  0  0  0  0
  133.3423  133.4710  137.2061 H   0  0  0  0  0  0  0  0  0  0  0  0
  135.2924  131.7078  138.7228 H   0  0  0  0  0  0  0  0  0  0  0  0
  135.5753  133.5040  138.3320 H   0  0  0  0  0  0  0  0  0  0  0  0
  130.5558  128.3098  137.5599 H   0  0  0  0  0  0  0  0  0  0  0  0
  128.9674  126.6199  138.3157 H   0  0  0  0  0  0  0  0  0  0  0  0
  128.0662  126.7631  140.6620 H   0  0  0  0  0  0  0  0  0  0  0  0
  130.3371  130.2036  141.3725 H   0  0  0  0  0  0  0  0  0  0  0  0
  130.8662  131.3965  137.1669 H   0  0  0  0  0  0  0  0  0  0  0  0
  131.6388  132.1022  140.7378 H   0  0  0  0  0  0  0  0  0  0  0  0
  130.8006  133.9974  141.9964 H   0  0  0  0  0  0  0  0  0  0  0  0
  129.5317  135.7875  140.8688 H   0  0  0  0  0  0  0  0  0  0  0  0
  129.1578  135.5739  138.4373 H   0  0  0  0  0  0  0  0  0  0  0  0
  1  2  2  0
  2  3  1  0
  3  4  1  0
  4  5  2  0
  5  6  1  0
  6  7  2  0
  7  8  1  0
  7  9  1  0
  9 10  1  0
  9 11  2  0
  2 12  1  0
 12 13  1  0
 13 14  1  0
 14 15  1  0
 15 16  1  0
 16 17  1  0
 15 18  1  0
 18 19  2  0
 18 20  1  0
 20 21  1  0
 21 22  2  0
 22 23  1  0
 23 24  2  0
 24 25  1  0
 25 26  1  0
 25 27  2  0
 20 28  1  0
 28 29  1  0
 29 30  2  0
 30 31  1  0
 31 32  2  0
 32 33  1  0
 33 34  2  0
 34 35  1  0
 11  4  1  0
 17 12  1  0
 27 21  1  0
 34 29  1  0
 28 15  1  0
  3 36  1  0
  5 37  1  0
  6 38  1  0
 11 39  1  0
 13 40  1  0
 13 41  1  0
 14 42  1  0
 14 43  1  0
 16 44  1  0
 16 45  1  0
 17 46  1  0
 17 47  1  0
 22 48  1  0
 23 49  1  0
 24 50  1  0
 27 51  1  0
 28 52  1  6
 30 53  1  0
 31 54  1  0
 32 55  1  0
 33 56  1  0
M  CHG  2  34   1  35  -1
M  END
>  <docking_score>  (3) 
-8.6219999999999999

$$$$
