
     RDKit          3D

 56 60  0  0  0  0  0  0  0  0999 V2000
  126.5537  142.4015  143.0046 N   0  0  0  0  0  0  0  0  0  0  0  0
  127.3949  141.8727  142.3780 C   0  0  0  0  0  0  0  0  0  0  0  0
  128.4422  141.2237  141.6138 C   0  0  0  0  0  0  0  0  0  0  0  0
  129.5386  141.9272  141.1622 C   0  0  0  0  0  0  0  0  0  0  0  0
  130.5108  141.2683  140.4410 C   0  0  0  0  0  0  0  0  0  0  0  0
  130.3734  139.9036  140.1782 C   0  0  0  0  0  0  0  0  0  0  0  0
  129.2671  139.2191  140.6405 C   0  0  0  0  0  0  0  0  0  0  0  0
  129.1055  137.8373  140.3926 N   0  0  0  0  0  0  0  0  0  0  0  0
  128.8804  137.0797  139.2191 C   0  0  0  0  0  0  0  0  0  0  0  0
  128.3495  137.3099  138.1177 O   0  0  0  0  0  0  0  0  0  0  0  0
  129.5308  135.9332  139.8550 C   0  0  0  0  0  0  0  0  0  0  0  0
  130.9944  135.8958  139.6116 C   0  0  0  0  0  0  0  0  0  0  0  0
  131.2558  135.3380  138.2347 C   0  0  0  0  0  0  0  0  0  0  0  0
  130.5316  134.1179  137.9524 N   0  0  0  0  0  0  0  0  0  0  0  0
  131.1413  133.1605  137.0867 C   0  0  0  0  0  0  0  0  0  0  0  0
  131.5969  133.5720  135.9963 O   0  0  0  0  0  0  0  0  0  0  0  0
  131.2627  131.7859  137.3800 N   0  0  0  0  0  0  0  0  0  0  0  0
  131.8486  130.7832  136.5974 C   0  0  0  0  0  0  0  0  0  0  0  0
  131.2550  130.0248  135.6393 C   0  0  0  0  0  0  0  0  0  0  0  0
  131.9667  129.0602  134.9530 C   0  0  0  0  0  0  0  0  0  0  0  0
  131.3367  128.3155  133.9940 F   0  0  0  0  0  0  0  0  0  0  0  0
  133.2893  128.8134  135.1911 C   0  0  0  0  0  0  0  0  0  0  0  0
  133.9091  129.5609  136.1479 C   0  0  0  0  0  0  0  0  0  0  0  0
  135.2220  129.3397  136.4083 F   0  0  0  0  0  0  0  0  0  0  0  0
  133.2061  130.5201  136.8322 C   0  0  0  0  0  0  0  0  0  0  0  0
  129.2475  133.8198  138.4965 C   0  0  0  0  0  0  0  0  0  0  0  0
  128.8481  134.6091  139.6999 C   0  0  0  0  0  0  0  0  0  0  0  0
  129.0820  136.5925  141.1361 C   0  0  1  0  0  0  0  0  0  0  0  0
  129.9809  136.5167  142.2838 C   0  0  0  0  0  0  0  0  0  0  0  0
  129.6341  137.2229  143.4378 C   0  0  0  0  0  0  0  0  0  0  0  0
  130.3996  137.2207  144.5618 C   0  0  0  0  0  0  0  0  0  0  0  0
  131.5705  136.4956  144.5789 C   0  0  0  0  0  0  0  0  0  0  0  0
  131.9103  135.7952  143.4281 C   0  0  0  0  0  0  0  0  0  0  0  0
  131.1209  135.8211  142.3251 N   0  0  0  0  0  0  0  0  0  0  0  0
  128.2968  139.8776  141.3605 C   0  0  0  0  0  0  0  0  0  0  0  0
  129.5996  142.9839  141.3908 H   0  0  0  0  0  0  0  0  0  0  0  0
  131.3913  141.8144  140.0741 H   0  0  0  0  0  0  0  0  0  0  0  0
  131.1203  139.3862  139.6213 H   0  0  0  0  0  0  0  0  0  0  0  0
  131.5863  135.3624  140.3740 H   0  0  0  0  0  0  0  0  0  0  0  0
  131.3658  136.9440  139.5984 H   0  0  0  0  0  0  0  0  0  0  0  0
  130.9970  136.1023  137.4535 H   0  0  0  0  0  0  0  0  0  0  0  0
  132.3635  135.1310  138.2048 H   0  0  0  0  0  0  0  0  0  0  0  0
  130.8468  131.5057  138.3195 H   0  0  0  0  0  0  0  0  0  0  0  0
  130.2107  130.1853  135.4114 H   0  0  0  0  0  0  0  0  0  0  0  0
  133.8390  128.0487  134.6414 H   0  0  0  0  0  0  0  0  0  0  0  0
  133.7792  131.0728  137.5827 H   0  0  0  0  0  0  0  0  0  0  0  0
  128.4954  133.9144  137.6757 H   0  0  0  0  0  0  0  0  0  0  0  0
  129.2766  132.7412  138.8427 H   0  0  0  0  0  0  0  0  0  0  0  0
  128.9940  134.0429  140.6488 H   0  0  0  0  0  0  0  0  0  0  0  0
  127.7524  134.8062  139.6307 H   0  0  0  0  0  0  0  0  0  0  0  0
  128.0309  136.3292  141.3527 H   0  0  0  0  0  0  0  0  0  0  0  0
  128.7130  137.8066  143.4555 H   0  0  0  0  0  0  0  0  0  0  0  0
  130.1406  137.7656  145.4634 H   0  0  0  0  0  0  0  0  0  0  0  0
  132.2116  136.4595  145.4380 H   0  0  0  0  0  0  0  0  0  0  0  0
  132.8285  135.2257  143.4405 H   0  0  0  0  0  0  0  0  0  0  0  0
  127.4050  139.3547  141.7399 H   0  0  0  0  0  0  0  0  0  0  0  0
  1  2  3  0
  2  3  1  0
  3  4  2  0
  4  5  1  0
  5  6  2  0
  6  7  1  0
  7  8  1  0
  8  9  1  0
  9 10  2  0
  9 11  1  0
 11 12  1  0
 12 13  1  0
 13 14  1  0
 14 15  1  0
 15 16  2  0
 15 17  1  0
 17 18  1  0
 18 19  2  0
 19 20  1  0
 20 21  1  0
 20 22  2  0
 22 23  1  0
 23 24  1  0
 23 25  2  0
 14 26  1  0
 26 27  1  0
 11 28  1  0
 28 29  1  0
 29 30  2  0
 30 31  1  0
 31 32  2  0
 32 33  1  0
 33 34  2  0
  7 35  2  0
 35  3  1  0
 28  8  1  0
 34 29  1  0
 27 11  1  0
 25 18  1  0
  4 36  1  0
  5 37  1  0
  6 38  1  0
 12 39  1  0
 12 40  1  0
 13 41  1  0
 13 42  1  0
 17 43  1  0
 19 44  1  0
 22 45  1  0
 25 46  1  0
 26 47  1  0
 26 48  1  0
 27 49  1  0
 27 50  1  0
 28 51  1  1
 30 52  1  0
 31 53  1  0
 32 54  1  0
 33 55  1  0
 35 56  1  0
M  END
>  <docking_score>  (1) 
-8.9160000000000004

$$$$

     RDKit          3D

 56 60  0  0  0  0  0  0  0  0999 V2000
  137.9019  130.8149  137.6358 N   0  0  0  0  0  0  0  0  0  0  0  0
  136.8232  130.3517  137.5931 C   0  0  0  0  0  0  0  0  0  0  0  0
  135.4958  129.7721  137.5303 C   0  0  0  0  0  0  0  0  0  0  0  0
  134.7386  129.8423  136.3802 C   0  0  0  0  0  0  0  0  0  0  0  0
  133.4825  129.2754  136.3656 C   0  0  0  0  0  0  0  0  0  0  0  0
  132.9954  128.6405  137.5102 C   0  0  0  0  0  0  0  0  0  0  0  0
  133.7712  128.5819  138.6507 C   0  0  0  0  0  0  0  0  0  0  0  0
  133.3044  127.9419  139.8209 N   0  0  0  0  0  0  0  0  0  0  0  0
  132.1668  128.1254  140.6418 C   0  0  0  0  0  0  0  0  0  0  0  0
  131.4272  129.0895  140.9090 O   0  0  0  0  0  0  0  0  0  0  0  0
  132.2405  126.7161  141.0296 C   0  0  0  0  0  0  0  0  0  0  0  0
  131.4610  125.8313  140.1283 C   0  0  0  0  0  0  0  0  0  0  0  0
  130.0010  125.9041  140.5000 C   0  0  0  0  0  0  0  0  0  0  0  0
  129.7513  125.7498  141.9166 N   0  0  0  0  0  0  0  0  0  0  0  0
  128.5314  125.1273  142.3192 C   0  0  0  0  0  0  0  0  0  0  0  0
  128.4663  123.8796  142.2490 O   0  0  0  0  0  0  0  0  0  0  0  0
  127.3989  125.8252  142.7893 N   0  0  0  0  0  0  0  0  0  0  0  0
  126.1715  125.2983  143.2097 C   0  0  0  0  0  0  0  0  0  0  0  0
  125.9523  124.3890  144.1949 C   0  0  0  0  0  0  0  0  0  0  0  0
  124.6750  123.9543  144.4907 C   0  0  0  0  0  0  0  0  0  0  0  0
  124.4914  123.0383  145.4899 F   0  0  0  0  0  0  0  0  0  0  0  0
  123.5716  124.4042  143.8220 C   0  0  0  0  0  0  0  0  0  0  0  0
  123.7641  125.3175  142.8284 C   0  0  0  0  0  0  0  0  0  0  0  0
  122.6886  125.7835  142.1452 F   0  0  0  0  0  0  0  0  0  0  0  0
  125.0311  125.7521  142.5311 C   0  0  0  0  0  0  0  0  0  0  0  0
  130.6594  126.1804  142.9284 C   0  0  0  0  0  0  0  0  0  0  0  0
  132.0665  126.4158  142.4867 C   0  0  0  0  0  0  0  0  0  0  0  0
  133.7075  126.8706  140.7114 C   0  0  1  0  0  0  0  0  0  0  0  0
  134.3838  125.7391  140.0844 C   0  0  0  0  0  0  0  0  0  0  0  0
  134.8348  124.7048  140.9078 C   0  0  0  0  0  0  0  0  0  0  0  0
  135.4763  123.6061  140.4274 C   0  0  0  0  0  0  0  0  0  0  0  0
  135.6986  123.4935  139.0728 C   0  0  0  0  0  0  0  0  0  0  0  0
  135.2478  124.5253  138.2589 C   0  0  0  0  0  0  0  0  0  0  0  0
  134.6113  125.6066  138.7746 N   0  0  0  0  0  0  0  0  0  0  0  0
  135.0252  129.1482  138.6646 C   0  0  0  0  0  0  0  0  0  0  0  0
  135.1597  130.3458  135.5189 H   0  0  0  0  0  0  0  0  0  0  0  0
  132.8662  129.3223  135.4567 H   0  0  0  0  0  0  0  0  0  0  0  0
  132.0252  128.1995  137.5078 H   0  0  0  0  0  0  0  0  0  0  0  0
  131.8058  124.7849  140.0801 H   0  0  0  0  0  0  0  0  0  0  0  0
  131.5402  126.2388  139.0965 H   0  0  0  0  0  0  0  0  0  0  0  0
  129.5645  126.8811  140.1592 H   0  0  0  0  0  0  0  0  0  0  0  0
  129.5104  125.0580  139.9394 H   0  0  0  0  0  0  0  0  0  0  0  0
  127.5226  126.8826  142.8150 H   0  0  0  0  0  0  0  0  0  0  0  0
  126.7931  124.0060  144.7559 H   0  0  0  0  0  0  0  0  0  0  0  0
  122.5688  124.0524  144.0662 H   0  0  0  0  0  0  0  0  0  0  0  0
  125.0956  126.4838  141.7202 H   0  0  0  0  0  0  0  0  0  0  0  0
  130.2258  127.0867  143.4172 H   0  0  0  0  0  0  0  0  0  0  0  0
  130.7219  125.3471  143.6939 H   0  0  0  0  0  0  0  0  0  0  0  0
  132.7401  125.5637  142.7366 H   0  0  0  0  0  0  0  0  0  0  0  0
  132.4612  127.2903  143.0556 H   0  0  0  0  0  0  0  0  0  0  0  0
  134.2408  127.3091  141.5741 H   0  0  0  0  0  0  0  0  0  0  0  0
  134.6739  124.7648  141.9848 H   0  0  0  0  0  0  0  0  0  0  0  0
  135.8312  122.7973  141.0571 H   0  0  0  0  0  0  0  0  0  0  0  0
  136.1996  122.6492  138.6409 H   0  0  0  0  0  0  0  0  0  0  0  0
  135.4214  124.4377  137.1960 H   0  0  0  0  0  0  0  0  0  0  0  0
  135.6634  129.1155  139.5614 H   0  0  0  0  0  0  0  0  0  0  0  0
  1  2  3  0
  2  3  1  0
  3  4  2  0
  4  5  1  0
  5  6  2  0
  6  7  1  0
  7  8  1  0
  8  9  1  0
  9 10  2  0
  9 11  1  0
 11 12  1  0
 12 13  1  0
 13 14  1  0
 14 15  1  0
 15 16  2  0
 15 17  1  0
 17 18  1  0
 18 19  2  0
 19 20  1  0
 20 21  1  0
 20 22  2  0
 22 23  1  0
 23 24  1  0
 23 25  2  0
 14 26  1  0
 26 27  1  0
 11 28  1  0
 28 29  1  0
 29 30  2  0
 30 31  1  0
 31 32  2  0
 32 33  1  0
 33 34  2  0
  7 35  2  0
 35  3  1  0
 28  8  1  0
 34 29  1  0
 27 11  1  0
 25 18  1  0
  4 36  1  0
  5 37  1  0
  6 38  1  0
 12 39  1  0
 12 40  1  0
 13 41  1  0
 13 42  1  0
 17 43  1  0
 19 44  1  0
 22 45  1  0
 25 46  1  0
 26 47  1  0
 26 48  1  0
 27 49  1  0
 27 50  1  0
 28 51  1  1
 30 52  1  0
 31 53  1  0
 32 54  1  0
 33 55  1  0
 35 56  1  0
M  END
>  <docking_score>  (2) 
-8.8599999999999994

$$$$

     RDKit          3D

 56 60  0  0  0  0  0  0  0  0999 V2000
  130.8218  140.7516  140.0491 N   0  0  0  0  0  0  0  0  0  0  0  0
  130.4514  139.6441  139.9226 C   0  0  0  0  0  0  0  0  0  0  0  0
  129.9922  138.2793  139.7534 C   0  0  0  0  0  0  0  0  0  0  0  0
  128.7313  138.0041  139.2685 C   0  0  0  0  0  0  0  0  0  0  0  0
  128.3381  136.6913  139.1222 C   0  0  0  0  0  0  0  0  0  0  0  0
  129.2175  135.6621  139.4654 C   0  0  0  0  0  0  0  0  0  0  0  0
  130.4757  135.9611  139.9488 C   0  0  0  0  0  0  0  0  0  0  0  0
  131.3866  134.9392  140.2994 N   0  0  0  0  0  0  0  0  0  0  0  0
  132.5125  134.3765  139.6534 C   0  0  0  0  0  0  0  0  0  0  0  0
  132.8652  134.2442  138.4677 O   0  0  0  0  0  0  0  0  0  0  0  0
  133.0670  134.0265  140.9619 C   0  0  0  0  0  0  0  0  0  0  0  0
  133.9171  135.1016  141.5311 C   0  0  0  0  0  0  0  0  0  0  0  0
  135.2810  135.0501  140.8890 C   0  0  0  0  0  0  0  0  0  0  0  0
  135.8627  133.7258  140.8602 N   0  0  0  0  0  0  0  0  0  0  0  0
  137.2830  133.6145  140.9498 C   0  0  0  0  0  0  0  0  0  0  0  0
  137.8559  132.8430  140.1483 O   0  0  0  0  0  0  0  0  0  0  0  0
  138.0792  134.3154  141.8800 N   0  0  0  0  0  0  0  0  0  0  0  0
  139.4706  134.2726  142.0328 C   0  0  0  0  0  0  0  0  0  0  0  0
  140.2145  133.2807  142.5879 C   0  0  0  0  0  0  0  0  0  0  0  0
  141.5888  133.3869  142.6772 C   0  0  0  0  0  0  0  0  0  0  0  0
  142.3062  132.3682  143.2418 F   0  0  0  0  0  0  0  0  0  0  0  0
  142.2735  134.4776  142.2207 C   0  0  0  0  0  0  0  0  0  0  0  0
  141.5504  135.4875  141.6589 C   0  0  0  0  0  0  0  0  0  0  0  0
  142.2008  136.5845  141.1962 F   0  0  0  0  0  0  0  0  0  0  0  0
  140.1851  135.3863  141.5681 C   0  0  0  0  0  0  0  0  0  0  0  0
  135.0937  132.5296  140.7533 C   0  0  0  0  0  0  0  0  0  0  0  0
  133.6448  132.6510  141.0946 C   0  0  0  0  0  0  0  0  0  0  0  0
  131.6211  134.0171  141.3939 C   0  0  1  0  0  0  0  0  0  0  0  0
  131.3137  134.5195  142.7296 C   0  0  0  0  0  0  0  0  0  0  0  0
  131.8374  135.7596  143.1018 C   0  0  0  0  0  0  0  0  0  0  0  0
  131.6131  136.3191  144.3208 C   0  0  0  0  0  0  0  0  0  0  0  0
  130.8378  135.6463  145.2392 C   0  0  0  0  0  0  0  0  0  0  0  0
  130.3196  134.4133  144.8633 C   0  0  0  0  0  0  0  0  0  0  0  0
  130.5651  133.8866  143.6375 N   0  0  0  0  0  0  0  0  0  0  0  0
  130.8676  137.2720  140.0947 C   0  0  0  0  0  0  0  0  0  0  0  0
  128.0856  138.8362  139.0170 H   0  0  0  0  0  0  0  0  0  0  0  0
  127.3363  136.4547  138.7367 H   0  0  0  0  0  0  0  0  0  0  0  0
  128.9218  134.6442  139.3556 H   0  0  0  0  0  0  0  0  0  0  0  0
  133.9972  135.1076  142.6310 H   0  0  0  0  0  0  0  0  0  0  0  0
  133.4730  136.0789  141.2405 H   0  0  0  0  0  0  0  0  0  0  0  0
  135.2282  135.4458  139.8392 H   0  0  0  0  0  0  0  0  0  0  0  0
  135.9281  135.7294  141.5140 H   0  0  0  0  0  0  0  0  0  0  0  0
  137.5250  134.9465  142.5347 H   0  0  0  0  0  0  0  0  0  0  0  0
  139.7191  132.3950  142.9601 H   0  0  0  0  0  0  0  0  0  0  0  0
  143.3589  134.5481  142.2975 H   0  0  0  0  0  0  0  0  0  0  0  0
  139.6832  136.2412  141.1049 H   0  0  0  0  0  0  0  0  0  0  0  0
  135.2399  132.1169  139.7254 H   0  0  0  0  0  0  0  0  0  0  0  0
  135.5173  131.7951  141.5053 H   0  0  0  0  0  0  0  0  0  0  0  0
  133.4174  132.2892  142.1239 H   0  0  0  0  0  0  0  0  0  0  0  0
  133.0748  131.9833  140.4064 H   0  0  0  0  0  0  0  0  0  0  0  0
  131.1550  133.0466  141.1452 H   0  0  0  0  0  0  0  0  0  0  0  0
  132.4553  136.3168  142.3966 H   0  0  0  0  0  0  0  0  0  0  0  0
  132.0149  137.2809  144.6210 H   0  0  0  0  0  0  0  0  0  0  0  0
  130.6296  136.0411  146.2145 H   0  0  0  0  0  0  0  0  0  0  0  0
  129.7110  133.8848  145.5829 H   0  0  0  0  0  0  0  0  0  0  0  0
  131.8652  137.5369  140.4783 H   0  0  0  0  0  0  0  0  0  0  0  0
  1  2  3  0
  2  3  1  0
  3  4  2  0
  4  5  1  0
  5  6  2  0
  6  7  1  0
  7  8  1  0
  8  9  1  0
  9 10  2  0
  9 11  1  0
 11 12  1  0
 12 13  1  0
 13 14  1  0
 14 15  1  0
 15 16  2  0
 15 17  1  0
 17 18  1  0
 18 19  2  0
 19 20  1  0
 20 21  1  0
 20 22  2  0
 22 23  1  0
 23 24  1  0
 23 25  2  0
 14 26  1  0
 26 27  1  0
 11 28  1  0
 28 29  1  0
 29 30  2  0
 30 31  1  0
 31 32  2  0
 32 33  1  0
 33 34  2  0
  7 35  2  0
 35  3  1  0
 28  8  1  0
 34 29  1  0
 27 11  1  0
 25 18  1  0
  4 36  1  0
  5 37  1  0
  6 38  1  0
 12 39  1  0
 12 40  1  0
 13 41  1  0
 13 42  1  0
 17 43  1  0
 19 44  1  0
 22 45  1  0
 25 46  1  0
 26 47  1  0
 26 48  1  0
 27 49  1  0
 27 50  1  0
 28 51  1  6
 30 52  1  0
 31 53  1  0
 32 54  1  0
 33 55  1  0
 35 56  1  0
M  END
>  <docking_score>  (3) 
-8.8539999999999992

$$$$
