
     RDKit          3D

 56 59  0  0  0  0  0  0  0  0999 V2000
  136.2236  126.2282  141.9625 C   0  0  0  0  0  0  0  0  0  0  0  0
  134.8490  125.6786  142.2737 C   0  0  0  0  0  0  0  0  0  0  0  0
  134.5421  125.9449  143.7358 C   0  0  0  0  0  0  0  0  0  0  0  0
  133.8495  126.3286  141.4982 N   0  0  0  0  0  0  0  0  0  0  0  0
  132.5532  126.5534  142.1048 C   0  0  0  0  0  0  0  0  0  0  0  0
  131.9141  125.7779  141.0041 C   0  0  0  0  0  0  0  0  0  0  0  0
  131.2676  124.5153  141.6021 C   0  0  0  0  0  0  0  0  0  0  0  0
  130.1807  124.9732  142.5779 C   0  0  0  0  0  0  0  0  0  0  0  0
  129.2681  125.8800  141.9892 N   0  0  0  0  0  0  0  0  0  0  0  0
  127.9612  126.0497  142.5537 C   0  0  0  0  0  0  0  0  0  0  0  0
  127.5418  127.1802  142.9002 O   0  0  0  0  0  0  0  0  0  0  0  0
  127.0981  124.9159  142.7368 N   0  0  0  0  0  0  0  0  0  0  0  0
  125.7898  124.9693  143.2608 C   0  0  0  0  0  0  0  0  0  0  0  0
  125.4705  124.2306  144.4083 C   0  0  0  0  0  0  0  0  0  0  0  0
  124.1906  124.2419  144.9229 C   0  0  0  0  0  0  0  0  0  0  0  0
  123.1773  124.9728  144.3363 C   0  0  0  0  0  0  0  0  0  0  0  0
  121.9161  124.9751  144.8597 F   0  0  0  0  0  0  0  0  0  0  0  0
  123.4781  125.7004  143.2101 C   0  0  0  0  0  0  0  0  0  0  0  0
  122.4733  126.4183  142.6293 F   0  0  0  0  0  0  0  0  0  0  0  0
  124.7761  125.6882  142.6897 C   0  0  0  0  0  0  0  0  0  0  0  0
  129.5824  126.6658  140.8398 C   0  0  0  0  0  0  0  0  0  0  0  0
  130.8719  126.4231  140.1644 C   0  0  0  0  0  0  0  0  0  0  0  0
  133.2466  125.5187  140.4227 C   0  0  1  0  0  0  0  0  0  0  0  0
  133.5990  126.0554  139.1062 C   0  0  0  0  0  0  0  0  0  0  0  0
  133.9540  127.3566  138.8446 C   0  0  0  0  0  0  0  0  0  0  0  0
  134.2689  127.7885  137.5598 C   0  0  0  0  0  0  0  0  0  0  0  0
  134.2398  126.9309  136.4855 C   0  0  0  0  0  0  0  0  0  0  0  0
  134.6364  127.4604  134.8480 Cl  0  0  0  0  0  0  0  0  0  0  0  0
  133.8821  125.6109  136.7393 C   0  0  0  0  0  0  0  0  0  0  0  0
  133.5712  125.1886  138.0145 C   0  0  0  0  0  0  0  0  0  0  0  0
  136.9298  126.0592  142.7945 H   0  0  0  0  0  0  0  0  0  0  0  0
  136.6722  125.7514  141.0687 H   0  0  0  0  0  0  0  0  0  0  0  0
  136.1793  127.3167  141.7013 H   0  0  0  0  0  0  0  0  0  0  0  0
  134.8982  124.5845  142.0690 H   0  0  0  0  0  0  0  0  0  0  0  0
  134.5876  127.0674  143.8401 H   0  0  0  0  0  0  0  0  0  0  0  0
  133.5287  125.6297  144.0131 H   0  0  0  0  0  0  0  0  0  0  0  0
  135.3430  125.5465  144.3700 H   0  0  0  0  0  0  0  0  0  0  0  0
  132.4403  126.1253  143.1363 H   0  0  0  0  0  0  0  0  0  0  0  0
  132.2852  127.6330  142.0359 H   0  0  0  0  0  0  0  0  0  0  0  0
  130.8079  123.9540  140.7792 H   0  0  0  0  0  0  0  0  0  0  0  0
  132.0590  123.9553  142.1169 H   0  0  0  0  0  0  0  0  0  0  0  0
  129.5956  124.0149  142.7656 H   0  0  0  0  0  0  0  0  0  0  0  0
  130.6080  125.3043  143.5522 H   0  0  0  0  0  0  0  0  0  0  0  0
  127.5319  123.9855  142.4429 H   0  0  0  0  0  0  0  0  0  0  0  0
  126.2717  123.6699  144.8553 H   0  0  0  0  0  0  0  0  0  0  0  0
  123.9334  123.6749  145.8143 H   0  0  0  0  0  0  0  0  0  0  0  0
  124.9186  126.2743  141.8000 H   0  0  0  0  0  0  0  0  0  0  0  0
  128.7181  126.5035  140.1147 H   0  0  0  0  0  0  0  0  0  0  0  0
  129.4423  127.7412  141.1306 H   0  0  0  0  0  0  0  0  0  0  0  0
  131.2386  127.3425  139.6447 H   0  0  0  0  0  0  0  0  0  0  0  0
  130.6546  125.7044  139.3115 H   0  0  0  0  0  0  0  0  0  0  0  0
  133.5644  124.4664  140.6095 H   0  0  0  0  0  0  0  0  0  0  0  0
  133.9935  128.0626  139.6607 H   0  0  0  0  0  0  0  0  0  0  0  0
  134.5496  128.8179  137.3586 H   0  0  0  0  0  0  0  0  0  0  0  0
  133.8686  124.9493  135.8682 H   0  0  0  0  0  0  0  0  0  0  0  0
  133.2965  124.1520  138.1865 H   0  0  0  0  0  0  0  0  0  0  0  0
  1  2  1  0
  2  3  1  0
  2  4  1  0
  4  5  1  0
  5  6  1  0
  6  7  1  0
  7  8  1  0
  8  9  1  0
  9 10  1  0
 10 11  2  0
 10 12  1  0
 12 13  1  0
 13 14  2  0
 14 15  1  0
 15 16  2  0
 16 17  1  0
 16 18  1  0
 18 19  1  0
 18 20  2  0
  9 21  1  0
 21 22  1  0
  6 23  1  0
 23 24  1  0
 24 25  2  0
 25 26  1  0
 26 27  2  0
 27 28  1  0
 27 29  1  0
 29 30  2  0
 23  4  1  0
 30 24  1  0
 22  6  1  0
 20 13  1  0
  1 31  1  0
  1 32  1  0
  1 33  1  0
  2 34  1  0
  3 35  1  0
  3 36  1  0
  3 37  1  0
  5 38  1  0
  5 39  1  0
  7 40  1  0
  7 41  1  0
  8 42  1  0
  8 43  1  0
 12 44  1  0
 14 45  1  0
 15 46  1  0
 20 47  1  0
 21 48  1  0
 21 49  1  0
 22 50  1  0
 22 51  1  0
 23 52  1  6
 25 53  1  0
 26 54  1  0
 29 55  1  0
 30 56  1  0
M  END
>  <docking_score>  (1) 
-7.9109999999999996

$$$$

     RDKit          3D

 56 59  0  0  0  0  0  0  0  0999 V2000
  132.9701  126.8761  139.7163 C   0  0  0  0  0  0  0  0  0  0  0  0
  134.3839  126.9385  139.1815 C   0  0  0  0  0  0  0  0  0  0  0  0
  134.8504  128.3821  139.2173 C   0  0  0  0  0  0  0  0  0  0  0  0
  135.2721  126.1782  139.9914 N   0  0  0  0  0  0  0  0  0  0  0  0
  135.7189  124.8929  139.4939 C   0  0  0  0  0  0  0  0  0  0  0  0
  135.1614  124.2385  140.7113 C   0  0  0  0  0  0  0  0  0  0  0  0
  134.0229  123.2940  140.2851 C   0  0  0  0  0  0  0  0  0  0  0  0
  134.6314  122.2182  139.3821 C   0  0  0  0  0  0  0  0  0  0  0  0
  135.7410  121.5726  139.9768 N   0  0  0  0  0  0  0  0  0  0  0  0
  136.1388  120.2708  139.5267 C   0  0  0  0  0  0  0  0  0  0  0  0
  136.2770  119.3167  140.3298 O   0  0  0  0  0  0  0  0  0  0  0  0
  136.3912  120.0315  138.1329 N   0  0  0  0  0  0  0  0  0  0  0  0
  136.7654  118.7901  137.5782 C   0  0  0  0  0  0  0  0  0  0  0  0
  136.0336  118.2588  136.5074 C   0  0  0  0  0  0  0  0  0  0  0  0
  136.3606  117.0324  135.9670 C   0  0  0  0  0  0  0  0  0  0  0  0
  137.4117  116.2808  136.4522 C   0  0  0  0  0  0  0  0  0  0  0  0
  137.7238  115.0696  135.9045 F   0  0  0  0  0  0  0  0  0  0  0  0
  138.1361  116.7909  137.5027 C   0  0  0  0  0  0  0  0  0  0  0  0
  139.1717  116.0436  137.9837 F   0  0  0  0  0  0  0  0  0  0  0  0
  137.8035  118.0344  138.0493 C   0  0  0  0  0  0  0  0  0  0  0  0
  136.5164  122.1600  141.0213 C   0  0  0  0  0  0  0  0  0  0  0  0
  136.0578  123.4425  141.5892 C   0  0  0  0  0  0  0  0  0  0  0  0
  134.6720  125.5493  141.1832 C   0  0  1  0  0  0  0  0  0  0  0  0
  135.2068  126.1430  142.4108 C   0  0  0  0  0  0  0  0  0  0  0  0
  134.5641  126.1790  143.6246 C   0  0  0  0  0  0  0  0  0  0  0  0
  135.1409  126.7703  144.7445 C   0  0  0  0  0  0  0  0  0  0  0  0
  136.3867  127.3496  144.6905 C   0  0  0  0  0  0  0  0  0  0  0  0
  137.1350  128.1044  146.1009 Cl  0  0  0  0  0  0  0  0  0  0  0  0
  137.0464  127.3182  143.4665 C   0  0  0  0  0  0  0  0  0  0  0  0
  136.4700  126.7308  142.3602 C   0  0  0  0  0  0  0  0  0  0  0  0
  132.2862  127.5250  139.1412 H   0  0  0  0  0  0  0  0  0  0  0  0
  132.5484  125.8528  139.6653 H   0  0  0  0  0  0  0  0  0  0  0  0
  132.9331  127.1357  140.8055 H   0  0  0  0  0  0  0  0  0  0  0  0
  134.3370  126.5599  138.1347 H   0  0  0  0  0  0  0  0  0  0  0  0
  135.8439  128.3773  138.6824 H   0  0  0  0  0  0  0  0  0  0  0  0
  134.1811  129.0503  138.6616 H   0  0  0  0  0  0  0  0  0  0  0  0
  135.0606  128.6872  140.2492 H   0  0  0  0  0  0  0  0  0  0  0  0
  135.2592  124.5853  138.5172 H   0  0  0  0  0  0  0  0  0  0  0  0
  136.8328  124.8523  139.4974 H   0  0  0  0  0  0  0  0  0  0  0  0
  133.6204  122.8259  141.1920 H   0  0  0  0  0  0  0  0  0  0  0  0
  133.2816  123.8980  139.7463 H   0  0  0  0  0  0  0  0  0  0  0  0
  133.8033  121.4387  139.3317 H   0  0  0  0  0  0  0  0  0  0  0  0
  134.8061  122.5927  138.3473 H   0  0  0  0  0  0  0  0  0  0  0  0
  136.2780  120.8949  137.5147 H   0  0  0  0  0  0  0  0  0  0  0  0
  135.2207  118.8583  136.1387 H   0  0  0  0  0  0  0  0  0  0  0  0
  135.8013  116.6129  135.1344 H   0  0  0  0  0  0  0  0  0  0  0  0
  138.4141  118.3497  138.8758 H   0  0  0  0  0  0  0  0  0  0  0  0
  136.5804  121.3656  141.8362 H   0  0  0  0  0  0  0  0  0  0  0  0
  137.5773  122.2034  140.6562 H   0  0  0  0  0  0  0  0  0  0  0  0
  136.9134  124.0381  141.9930 H   0  0  0  0  0  0  0  0  0  0  0  0
  135.4538  123.1829  142.5160 H   0  0  0  0  0  0  0  0  0  0  0  0
  133.5673  125.6310  141.0558 H   0  0  0  0  0  0  0  0  0  0  0  0
  133.5851  125.7318  143.7121 H   0  0  0  0  0  0  0  0  0  0  0  0
  134.6289  126.7954  145.7017 H   0  0  0  0  0  0  0  0  0  0  0  0
  138.0361  127.7840  143.4512 H   0  0  0  0  0  0  0  0  0  0  0  0
  137.0068  126.7180  141.4161 H   0  0  0  0  0  0  0  0  0  0  0  0
  1  2  1  0
  2  3  1  0
  2  4  1  0
  4  5  1  0
  5  6  1  0
  6  7  1  0
  7  8  1  0
  8  9  1  0
  9 10  1  0
 10 11  2  0
 10 12  1  0
 12 13  1  0
 13 14  2  0
 14 15  1  0
 15 16  2  0
 16 17  1  0
 16 18  1  0
 18 19  1  0
 18 20  2  0
  9 21  1  0
 21 22  1  0
  6 23  1  0
 23 24  1  0
 24 25  2  0
 25 26  1  0
 26 27  2  0
 27 28  1  0
 27 29  1  0
 29 30  2  0
 23  4  1  0
 30 24  1  0
 22  6  1  0
 20 13  1  0
  1 31  1  0
  1 32  1  0
  1 33  1  0
  2 34  1  0
  3 35  1  0
  3 36  1  0
  3 37  1  0
  5 38  1  0
  5 39  1  0
  7 40  1  0
  7 41  1  0
  8 42  1  0
  8 43  1  0
 12 44  1  0
 14 45  1  0
 15 46  1  0
 20 47  1  0
 21 48  1  0
 21 49  1  0
 22 50  1  0
 22 51  1  0
 23 52  1  6
 25 53  1  0
 26 54  1  0
 29 55  1  0
 30 56  1  0
M  END
>  <docking_score>  (2) 
-7.6580000000000004

$$$$

     RDKit          3D

 56 59  0  0  0  0  0  0  0  0999 V2000
  130.6112  130.8839  137.5641 C   0  0  0  0  0  0  0  0  0  0  0  0
  132.0403  130.7474  137.0870 C   0  0  0  0  0  0  0  0  0  0  0  0
  132.0968  131.1229  135.6178 C   0  0  0  0  0  0  0  0  0  0  0  0
  132.9025  131.6322  137.7916 N   0  0  0  0  0  0  0  0  0  0  0  0
  132.3006  132.6422  138.6382 C   0  0  0  0  0  0  0  0  0  0  0  0
  132.9996  133.7010  137.8561 C   0  0  0  0  0  0  0  0  0  0  0  0
  131.9432  134.5707  137.1509 C   0  0  0  0  0  0  0  0  0  0  0  0
  131.0970  135.2384  138.2377 C   0  0  0  0  0  0  0  0  0  0  0  0
  131.8824  135.9247  139.1937 N   0  0  0  0  0  0  0  0  0  0  0  0
  131.2997  136.9702  139.9829 C   0  0  0  0  0  0  0  0  0  0  0  0
  131.3248  136.9326  141.2367 O   0  0  0  0  0  0  0  0  0  0  0  0
  130.6675  138.0923  139.3463 N   0  0  0  0  0  0  0  0  0  0  0  0
  130.0829  139.1838  140.0213 C   0  0  0  0  0  0  0  0  0  0  0  0
  130.8210  140.3603  140.2094 C   0  0  0  0  0  0  0  0  0  0  0  0
  130.2829  141.4309  140.8929 C   0  0  0  0  0  0  0  0  0  0  0  0
  129.0069  141.3916  141.4176 C   0  0  0  0  0  0  0  0  0  0  0  0
  128.4880  142.4610  142.0896 F   0  0  0  0  0  0  0  0  0  0  0  0
  128.2737  140.2429  141.2404 C   0  0  0  0  0  0  0  0  0  0  0  0
  127.0142  140.2049  141.7645 F   0  0  0  0  0  0  0  0  0  0  0  0
  128.8206  139.1585  140.5471 C   0  0  0  0  0  0  0  0  0  0  0  0
  133.2570  135.6240  139.4334 C   0  0  0  0  0  0  0  0  0  0  0  0
  133.9162  134.6401  138.5529 C   0  0  0  0  0  0  0  0  0  0  0  0
  133.5691  132.6630  136.9735 C   0  0  1  0  0  0  0  0  0  0  0  0
  135.0158  132.4384  136.9296 C   0  0  0  0  0  0  0  0  0  0  0  0
  135.7607  131.8432  137.9188 C   0  0  0  0  0  0  0  0  0  0  0  0
  137.1368  131.6731  137.8012 C   0  0  0  0  0  0  0  0  0  0  0  0
  137.8206  132.0941  136.6852 C   0  0  0  0  0  0  0  0  0  0  0  0
  139.5664  131.8866  136.5177 Cl  0  0  0  0  0  0  0  0  0  0  0  0
  137.0760  132.6975  135.6772 C   0  0  0  0  0  0  0  0  0  0  0  0
  135.7126  132.8633  135.7992 C   0  0  0  0  0  0  0  0  0  0  0  0
  129.9339  131.1867  136.7462 H   0  0  0  0  0  0  0  0  0  0  0  0
  130.2116  129.9318  137.9659 H   0  0  0  0  0  0  0  0  0  0  0  0
  130.5333  131.5996  138.4225 H   0  0  0  0  0  0  0  0  0  0  0  0
  132.3170  129.6786  137.2368 H   0  0  0  0  0  0  0  0  0  0  0  0
  132.1235  130.1374  135.0692 H   0  0  0  0  0  0  0  0  0  0  0  0
  131.1971  131.6577  135.2894 H   0  0  0  0  0  0  0  0  0  0  0  0
  133.0449  131.6247  135.3908 H   0  0  0  0  0  0  0  0  0  0  0  0
  131.1789  132.6690  138.6071 H   0  0  0  0  0  0  0  0  0  0  0  0
  132.7187  132.5702  139.6689 H   0  0  0  0  0  0  0  0  0  0  0  0
  132.4738  135.3397  136.5759 H   0  0  0  0  0  0  0  0  0  0  0  0
  131.3373  133.9044  136.5233 H   0  0  0  0  0  0  0  0  0  0  0  0
  130.5352  136.0406  137.6574 H   0  0  0  0  0  0  0  0  0  0  0  0
  130.3418  134.5399  138.6659 H   0  0  0  0  0  0  0  0  0  0  0  0
  130.6626  138.0427  138.2796 H   0  0  0  0  0  0  0  0  0  0  0  0
  131.8115  140.3762  139.7913 H   0  0  0  0  0  0  0  0  0  0  0  0
  130.8459  142.3491  141.0414 H   0  0  0  0  0  0  0  0  0  0  0  0
  128.1827  138.2970  140.4673 H   0  0  0  0  0  0  0  0  0  0  0  0
  133.8001  136.6250  139.3862 H   0  0  0  0  0  0  0  0  0  0  0  0
  133.3494  135.3612  140.5210 H   0  0  0  0  0  0  0  0  0  0  0  0
  134.7548  134.1206  139.0790 H   0  0  0  0  0  0  0  0  0  0  0  0
  134.4411  135.2390  137.7425 H   0  0  0  0  0  0  0  0  0  0  0  0
  133.0550  132.6561  135.9841 H   0  0  0  0  0  0  0  0  0  0  0  0
  135.2624  131.4941  138.8109 H   0  0  0  0  0  0  0  0  0  0  0  0
  137.7207  131.2014  138.5858 H   0  0  0  0  0  0  0  0  0  0  0  0
  137.6436  133.0213  134.7999 H   0  0  0  0  0  0  0  0  0  0  0  0
  135.1537  133.3362  134.9969 H   0  0  0  0  0  0  0  0  0  0  0  0
  1  2  1  0
  2  3  1  0
  2  4  1  0
  4  5  1  0
  5  6  1  0
  6  7  1  0
  7  8  1  0
  8  9  1  0
  9 10  1  0
 10 11  2  0
 10 12  1  0
 12 13  1  0
 13 14  2  0
 14 15  1  0
 15 16  2  0
 16 17  1  0
 16 18  1  0
 18 19  1  0
 18 20  2  0
  9 21  1  0
 21 22  1  0
  6 23  1  0
 23 24  1  0
 24 25  2  0
 25 26  1  0
 26 27  2  0
 27 28  1  0
 27 29  1  0
 29 30  2  0
 23  4  1  0
 30 24  1  0
 22  6  1  0
 20 13  1  0
  1 31  1  0
  1 32  1  0
  1 33  1  0
  2 34  1  0
  3 35  1  0
  3 36  1  0
  3 37  1  0
  5 38  1  0
  5 39  1  0
  7 40  1  0
  7 41  1  0
  8 42  1  0
  8 43  1  0
 12 44  1  0
 14 45  1  0
 15 46  1  0
 20 47  1  0
 21 48  1  0
 21 49  1  0
 22 50  1  0
 22 51  1  0
 23 52  1  6
 25 53  1  0
 26 54  1  0
 29 55  1  0
 30 56  1  0
M  END
>  <docking_score>  (3) 
-7.6500000000000004

$$$$
