
     RDKit          3D

 56 60  0  0  0  0  0  0  0  0999 V2000
  147.9768  130.7681  135.1432 N   0  0  0  0  0  0  0  0  0  0  0  0
  147.0383  131.4042  134.9224 C   0  0  0  0  0  0  0  0  0  0  0  0
  145.8763  132.1966  134.6733 C   0  0  0  0  0  0  0  0  0  0  0  0
  145.8555  133.0872  133.6057 C   0  0  0  0  0  0  0  0  0  0  0  0
  144.7737  133.8711  133.3085 C   0  0  0  0  0  0  0  0  0  0  0  0
  143.6517  133.7641  134.1162 C   0  0  0  0  0  0  0  0  0  0  0  0
  143.6660  132.8845  135.1746 C   0  0  0  0  0  0  0  0  0  0  0  0
  142.4811  132.8035  135.9735 N   0  0  0  0  0  0  0  0  0  0  0  0
  141.2567  132.1425  135.8357 C   0  0  0  0  0  0  0  0  0  0  0  0
  140.8210  131.1399  135.2433 O   0  0  0  0  0  0  0  0  0  0  0  0
  140.6328  133.1645  136.7283 C   0  0  0  0  0  0  0  0  0  0  0  0
  139.9884  134.2556  135.9615 C   0  0  0  0  0  0  0  0  0  0  0  0
  138.6560  133.8605  135.4294 C   0  0  0  0  0  0  0  0  0  0  0  0
  137.9650  132.8311  136.1295 N   0  0  0  0  0  0  0  0  0  0  0  0
  136.6479  132.4955  135.6330 C   0  0  0  0  0  0  0  0  0  0  0  0
  136.4180  132.5901  134.3960 O   0  0  0  0  0  0  0  0  0  0  0  0
  135.6131  132.0695  136.4837 N   0  0  0  0  0  0  0  0  0  0  0  0
  134.2980  131.7269  136.1502 C   0  0  0  0  0  0  0  0  0  0  0  0
  133.9051  130.4581  135.8622 C   0  0  0  0  0  0  0  0  0  0  0  0
  132.5679  130.1691  135.5527 C   0  0  0  0  0  0  0  0  0  0  0  0
  132.2149  128.9099  135.2780 F   0  0  0  0  0  0  0  0  0  0  0  0
  131.6483  131.1808  135.5398 C   0  0  0  0  0  0  0  0  0  0  0  0
  132.0009  132.4640  135.8212 C   0  0  0  0  0  0  0  0  0  0  0  0
  131.1207  133.5063  135.8192 F   0  0  0  0  0  0  0  0  0  0  0  0
  133.3346  132.7218  136.1252 C   0  0  0  0  0  0  0  0  0  0  0  0
  138.4295  132.1005  137.2786 C   0  0  0  0  0  0  0  0  0  0  0  0
  139.7438  132.5758  137.7999 C   0  0  0  0  0  0  0  0  0  0  0  0
  142.0205  133.3433  137.2382 C   0  0  2  0  0  0  0  0  0  0  0  0
  142.5070  134.6774  137.5645 C   0  0  0  0  0  0  0  0  0  0  0  0
  141.8825  135.3845  138.5694 C   0  0  0  0  0  0  0  0  0  0  0  0
  142.3319  136.6492  138.8783 C   0  0  0  0  0  0  0  0  0  0  0  0
  143.3876  137.1980  138.1940 C   0  0  0  0  0  0  0  0  0  0  0  0
  143.9824  136.4739  137.2070 C   0  0  0  0  0  0  0  0  0  0  0  0
  143.5210  135.2287  136.9216 N   0  0  0  0  0  0  0  0  0  0  0  0
  144.7647  132.1026  135.4594 C   0  0  0  0  0  0  0  0  0  0  0  0
  146.7424  133.1567  132.9882 H   0  0  0  0  0  0  0  0  0  0  0  0
  144.7472  134.5730  132.4720 H   0  0  0  0  0  0  0  0  0  0  0  0
  142.7564  134.3716  133.9231 H   0  0  0  0  0  0  0  0  0  0  0  0
  140.6535  134.4660  135.0726 H   0  0  0  0  0  0  0  0  0  0  0  0
  139.9480  135.2397  136.4842 H   0  0  0  0  0  0  0  0  0  0  0  0
  138.0482  134.8004  135.3383 H   0  0  0  0  0  0  0  0  0  0  0  0
  138.7441  133.5054  134.3630 H   0  0  0  0  0  0  0  0  0  0  0  0
  135.8802  131.9984  137.5083 H   0  0  0  0  0  0  0  0  0  0  0  0
  134.5826  129.6228  135.8457 H   0  0  0  0  0  0  0  0  0  0  0  0
  130.6133  130.9577  135.2991 H   0  0  0  0  0  0  0  0  0  0  0  0
  133.6089  133.7380  136.3447 H   0  0  0  0  0  0  0  0  0  0  0  0
  137.6394  132.0964  138.0830 H   0  0  0  0  0  0  0  0  0  0  0  0
  138.5417  131.0429  136.9637 H   0  0  0  0  0  0  0  0  0  0  0  0
  139.5767  133.3422  138.5827 H   0  0  0  0  0  0  0  0  0  0  0  0
  140.3494  131.7654  138.2849 H   0  0  0  0  0  0  0  0  0  0  0  0
  142.2307  132.5653  138.0319 H   0  0  0  0  0  0  0  0  0  0  0  0
  141.0637  134.9329  139.0875 H   0  0  0  0  0  0  0  0  0  0  0  0
  141.8424  137.2257  139.6712 H   0  0  0  0  0  0  0  0  0  0  0  0
  143.7428  138.2073  138.4433 H   0  0  0  0  0  0  0  0  0  0  0  0
  144.8159  136.8784  136.6514 H   0  0  0  0  0  0  0  0  0  0  0  0
  144.7265  131.4329  136.2987 H   0  0  0  0  0  0  0  0  0  0  0  0
  1  2  3  0
  2  3  1  0
  3  4  2  0
  4  5  1  0
  5  6  2  0
  6  7  1  0
  7  8  1  0
  8  9  1  0
  9 10  2  0
  9 11  1  0
 11 12  1  0
 12 13  1  0
 13 14  1  0
 14 15  1  0
 15 16  2  0
 15 17  1  0
 17 18  1  0
 18 19  2  0
 19 20  1  0
 20 21  1  0
 20 22  2  0
 22 23  1  0
 23 24  1  0
 23 25  2  0
 14 26  1  0
 26 27  1  0
 11 28  1  0
 28 29  1  0
 29 30  2  0
 30 31  1  0
 31 32  2  0
 32 33  1  0
 33 34  2  0
  7 35  2  0
 35  3  1  0
 28  8  1  0
 34 29  1  0
 27 11  1  0
 25 18  1  0
  4 36  1  0
  5 37  1  0
  6 38  1  0
 12 39  1  0
 12 40  1  0
 13 41  1  0
 13 42  1  0
 17 43  1  0
 19 44  1  0
 22 45  1  0
 25 46  1  0
 26 47  1  0
 26 48  1  0
 27 49  1  0
 27 50  1  0
 28 51  1  1
 30 52  1  0
 31 53  1  0
 32 54  1  0
 33 55  1  0
 35 56  1  0
M  END
>  <docking_score>  (1) 
-9.4239999999999995

$$$$

     RDKit          3D

 56 60  0  0  0  0  0  0  0  0999 V2000
  139.4063  133.8012  132.7423 N   0  0  0  0  0  0  0  0  0  0  0  0
  138.8370  133.4035  133.6652 C   0  0  0  0  0  0  0  0  0  0  0  0
  138.1175  132.8999  134.7916 C   0  0  0  0  0  0  0  0  0  0  0  0
  138.8043  132.3536  135.8702 C   0  0  0  0  0  0  0  0  0  0  0  0
  138.1769  131.8589  136.9815 C   0  0  0  0  0  0  0  0  0  0  0  0
  136.7918  131.9099  137.0230 C   0  0  0  0  0  0  0  0  0  0  0  0
  136.1062  132.4492  135.9586 C   0  0  0  0  0  0  0  0  0  0  0  0
  134.6785  132.4875  136.0523 N   0  0  0  0  0  0  0  0  0  0  0  0
  133.7438  133.5035  136.2741 C   0  0  0  0  0  0  0  0  0  0  0  0
  133.6799  134.7359  136.1212 O   0  0  0  0  0  0  0  0  0  0  0  0
  132.7914  132.4791  136.7975 C   0  0  0  0  0  0  0  0  0  0  0  0
  132.8417  132.3737  138.2740 C   0  0  0  0  0  0  0  0  0  0  0  0
  132.0846  133.4659  138.9436 C   0  0  0  0  0  0  0  0  0  0  0  0
  131.0282  134.0641  138.1996 N   0  0  0  0  0  0  0  0  0  0  0  0
  130.2664  135.0868  138.8831 C   0  0  0  0  0  0  0  0  0  0  0  0
  129.0071  135.0071  138.8939 O   0  0  0  0  0  0  0  0  0  0  0  0
  130.8822  136.1697  139.5344 N   0  0  0  0  0  0  0  0  0  0  0  0
  130.2788  137.2308  140.2186 C   0  0  0  0  0  0  0  0  0  0  0  0
  129.8587  137.1474  141.5085 C   0  0  0  0  0  0  0  0  0  0  0  0
  129.2771  138.2501  142.1511 C   0  0  0  0  0  0  0  0  0  0  0  0
  128.8784  138.1348  143.4214 F   0  0  0  0  0  0  0  0  0  0  0  0
  129.1303  139.4249  141.4672 C   0  0  0  0  0  0  0  0  0  0  0  0
  129.5366  139.5493  140.1750 C   0  0  0  0  0  0  0  0  0  0  0  0
  129.4098  140.6989  139.4514 F   0  0  0  0  0  0  0  0  0  0  0  0
  130.1107  138.4390  139.5625 C   0  0  0  0  0  0  0  0  0  0  0  0
  130.6324  133.7540  136.8515 C   0  0  0  0  0  0  0  0  0  0  0  0
  131.3884  132.6167  136.2515 C   0  0  0  0  0  0  0  0  0  0  0  0
  133.5878  131.5358  135.9646 C   0  0  2  0  0  0  0  0  0  0  0  0
  133.8814  130.1985  136.4633 C   0  0  0  0  0  0  0  0  0  0  0  0
  134.2954  129.2332  135.5709 C   0  0  0  0  0  0  0  0  0  0  0  0
  134.5675  127.9649  136.0337 C   0  0  0  0  0  0  0  0  0  0  0  0
  134.4277  127.6664  137.3661 C   0  0  0  0  0  0  0  0  0  0  0  0
  134.0167  128.6420  138.2215 C   0  0  0  0  0  0  0  0  0  0  0  0
  133.7551  129.8851  137.7404 N   0  0  0  0  0  0  0  0  0  0  0  0
  136.7545  132.9427  134.8469 C   0  0  0  0  0  0  0  0  0  0  0  0
  139.8854  132.3219  135.8172 H   0  0  0  0  0  0  0  0  0  0  0  0
  138.7073  131.4286  137.8340 H   0  0  0  0  0  0  0  0  0  0  0  0
  136.2380  131.5250  137.8908 H   0  0  0  0  0  0  0  0  0  0  0  0
  133.9256  132.4879  138.5720 H   0  0  0  0  0  0  0  0  0  0  0  0
  132.5716  131.3730  138.6851 H   0  0  0  0  0  0  0  0  0  0  0  0
  131.7388  133.0648  139.9339 H   0  0  0  0  0  0  0  0  0  0  0  0
  132.7760  134.3081  139.2331 H   0  0  0  0  0  0  0  0  0  0  0  0
  131.9427  136.1658  139.4984 H   0  0  0  0  0  0  0  0  0  0  0  0
  129.9371  136.2491  142.0949 H   0  0  0  0  0  0  0  0  0  0  0  0
  128.6791  140.2785  141.9639 H   0  0  0  0  0  0  0  0  0  0  0  0
  130.4282  138.5416  138.5403 H   0  0  0  0  0  0  0  0  0  0  0  0
  129.5186  133.5860  136.8015 H   0  0  0  0  0  0  0  0  0  0  0  0
  130.8262  134.6606  136.2427 H   0  0  0  0  0  0  0  0  0  0  0  0
  130.8419  131.6704  136.4353 H   0  0  0  0  0  0  0  0  0  0  0  0
  131.5027  132.6966  135.1382 H   0  0  0  0  0  0  0  0  0  0  0  0
  133.2048  131.5610  134.9006 H   0  0  0  0  0  0  0  0  0  0  0  0
  134.3976  129.4928  134.5389 H   0  0  0  0  0  0  0  0  0  0  0  0
  134.8927  127.1854  135.3357 H   0  0  0  0  0  0  0  0  0  0  0  0
  134.6454  126.6534  137.7312 H   0  0  0  0  0  0  0  0  0  0  0  0
  133.8983  128.4380  139.2757 H   0  0  0  0  0  0  0  0  0  0  0  0
  136.1734  133.3517  134.0411 H   0  0  0  0  0  0  0  0  0  0  0  0
  1  2  3  0
  2  3  1  0
  3  4  2  0
  4  5  1  0
  5  6  2  0
  6  7  1  0
  7  8  1  0
  8  9  1  0
  9 10  2  0
  9 11  1  0
 11 12  1  0
 12 13  1  0
 13 14  1  0
 14 15  1  0
 15 16  2  0
 15 17  1  0
 17 18  1  0
 18 19  2  0
 19 20  1  0
 20 21  1  0
 20 22  2  0
 22 23  1  0
 23 24  1  0
 23 25  2  0
 14 26  1  0
 26 27  1  0
 11 28  1  0
 28 29  1  0
 29 30  2  0
 30 31  1  0
 31 32  2  0
 32 33  1  0
 33 34  2  0
  7 35  2  0
 35  3  1  0
 28  8  1  0
 34 29  1  0
 27 11  1  0
 25 18  1  0
  4 36  1  0
  5 37  1  0
  6 38  1  0
 12 39  1  0
 12 40  1  0
 13 41  1  0
 13 42  1  0
 17 43  1  0
 19 44  1  0
 22 45  1  0
 25 46  1  0
 26 47  1  0
 26 48  1  0
 27 49  1  0
 27 50  1  0
 28 51  1  6
 30 52  1  0
 31 53  1  0
 32 54  1  0
 33 55  1  0
 35 56  1  0
M  END
>  <docking_score>  (2) 
-9.3510000000000009

$$$$

     RDKit          3D

 56 60  0  0  0  0  0  0  0  0999 V2000
  133.7334  127.1634  135.6507 N   0  0  0  0  0  0  0  0  0  0  0  0
  133.8961  126.5359  136.6066 C   0  0  0  0  0  0  0  0  0  0  0  0
  134.0738  125.7526  137.7877 C   0  0  0  0  0  0  0  0  0  0  0  0
  135.1843  124.9256  137.9154 C   0  0  0  0  0  0  0  0  0  0  0  0
  135.4171  124.1540  139.0216 C   0  0  0  0  0  0  0  0  0  0  0  0
  134.4964  124.2073  140.0571 C   0  0  0  0  0  0  0  0  0  0  0  0
  133.3951  125.0237  139.9368 C   0  0  0  0  0  0  0  0  0  0  0  0
  132.4783  125.0512  141.0356 N   0  0  0  0  0  0  0  0  0  0  0  0
  131.1183  124.7592  141.1770 C   0  0  0  0  0  0  0  0  0  0  0  0
  130.2691  124.0584  140.5991 O   0  0  0  0  0  0  0  0  0  0  0  0
  131.0719  125.6670  142.3620 C   0  0  0  0  0  0  0  0  0  0  0  0
  130.6145  127.0293  142.0032 C   0  0  0  0  0  0  0  0  0  0  0  0
  129.1366  127.1053  141.8472 C   0  0  0  0  0  0  0  0  0  0  0  0
  128.3659  126.1421  142.5582 N   0  0  0  0  0  0  0  0  0  0  0  0
  126.9288  126.2622  142.4401 C   0  0  0  0  0  0  0  0  0  0  0  0
  126.4476  127.2167  141.7696 O   0  0  0  0  0  0  0  0  0  0  0  0
  126.0486  125.3517  143.0504 N   0  0  0  0  0  0  0  0  0  0  0  0
  124.6493  125.3497  143.0337 C   0  0  0  0  0  0  0  0  0  0  0  0
  123.9057  126.3583  142.5073 C   0  0  0  0  0  0  0  0  0  0  0  0
  122.5046  126.2944  142.5005 C   0  0  0  0  0  0  0  0  0  0  0  0
  121.8039  127.3020  141.9717 F   0  0  0  0  0  0  0  0  0  0  0  0
  121.8799  125.2010  143.0331 C   0  0  0  0  0  0  0  0  0  0  0  0
  122.5876  124.1711  143.5705 C   0  0  0  0  0  0  0  0  0  0  0  0
  122.0100  123.0613  144.1146 F   0  0  0  0  0  0  0  0  0  0  0  0
  123.9767  124.2610  143.5634 C   0  0  0  0  0  0  0  0  0  0  0  0
  128.8607  125.0747  143.3863 C   0  0  0  0  0  0  0  0  0  0  0  0
  130.3434  125.0811  143.5499 C   0  0  0  0  0  0  0  0  0  0  0  0
  132.5305  125.3789  142.4473 C   0  0  2  0  0  0  0  0  0  0  0  0
  133.4595  126.4412  142.8102 C   0  0  0  0  0  0  0  0  0  0  0  0
  134.4656  126.1645  143.7106 C   0  0  0  0  0  0  0  0  0  0  0  0
  135.3429  127.1656  144.0642 C   0  0  0  0  0  0  0  0  0  0  0  0
  135.2165  128.4223  143.5268 C   0  0  0  0  0  0  0  0  0  0  0  0
  134.2121  128.6631  142.6406 C   0  0  0  0  0  0  0  0  0  0  0  0
  133.3601  127.6590  142.3077 N   0  0  0  0  0  0  0  0  0  0  0  0
  133.1762  125.7941  138.8150 C   0  0  0  0  0  0  0  0  0  0  0  0
  135.8904  124.8973  137.0948 H   0  0  0  0  0  0  0  0  0  0  0  0
  136.2865  123.5019  139.1318 H   0  0  0  0  0  0  0  0  0  0  0  0
  134.6343  123.6069  140.9673 H   0  0  0  0  0  0  0  0  0  0  0  0
  131.0690  127.2712  140.9973 H   0  0  0  0  0  0  0  0  0  0  0  0
  131.0023  127.8448  142.6572 H   0  0  0  0  0  0  0  0  0  0  0  0
  128.8358  128.1597  142.0895 H   0  0  0  0  0  0  0  0  0  0  0  0
  128.8460  126.9964  140.7632 H   0  0  0  0  0  0  0  0  0  0  0  0
  126.5212  124.5665  143.5853 H   0  0  0  0  0  0  0  0  0  0  0  0
  124.3378  127.2477  142.0840 H   0  0  0  0  0  0  0  0  0  0  0  0
  120.7953  125.1516  143.0291 H   0  0  0  0  0  0  0  0  0  0  0  0
  124.5316  123.4454  143.9913 H   0  0  0  0  0  0  0  0  0  0  0  0
  128.3319  125.0771  144.3822 H   0  0  0  0  0  0  0  0  0  0  0  0
  128.5689  124.1243  142.8946 H   0  0  0  0  0  0  0  0  0  0  0  0
  130.6139  125.6623  144.4538 H   0  0  0  0  0  0  0  0  0  0  0  0
  130.7790  124.0579  143.6983 H   0  0  0  0  0  0  0  0  0  0  0  0
  132.6884  124.4111  143.0111 H   0  0  0  0  0  0  0  0  0  0  0  0
  134.5425  125.1769  144.1127 H   0  0  0  0  0  0  0  0  0  0  0  0
  136.1448  126.9624  144.7827 H   0  0  0  0  0  0  0  0  0  0  0  0
  135.9181  129.2182  143.8118 H   0  0  0  0  0  0  0  0  0  0  0  0
  134.0875  129.6416  142.2000 H   0  0  0  0  0  0  0  0  0  0  0  0
  132.2996  126.4135  138.7688 H   0  0  0  0  0  0  0  0  0  0  0  0
  1  2  3  0
  2  3  1  0
  3  4  2  0
  4  5  1  0
  5  6  2  0
  6  7  1  0
  7  8  1  0
  8  9  1  0
  9 10  2  0
  9 11  1  0
 11 12  1  0
 12 13  1  0
 13 14  1  0
 14 15  1  0
 15 16  2  0
 15 17  1  0
 17 18  1  0
 18 19  2  0
 19 20  1  0
 20 21  1  0
 20 22  2  0
 22 23  1  0
 23 24  1  0
 23 25  2  0
 14 26  1  0
 26 27  1  0
 11 28  1  0
 28 29  1  0
 29 30  2  0
 30 31  1  0
 31 32  2  0
 32 33  1  0
 33 34  2  0
  7 35  2  0
 35  3  1  0
 28  8  1  0
 34 29  1  0
 27 11  1  0
 25 18  1  0
  4 36  1  0
  5 37  1  0
  6 38  1  0
 12 39  1  0
 12 40  1  0
 13 41  1  0
 13 42  1  0
 17 43  1  0
 19 44  1  0
 22 45  1  0
 25 46  1  0
 26 47  1  0
 26 48  1  0
 27 49  1  0
 27 50  1  0
 28 51  1  1
 30 52  1  0
 31 53  1  0
 32 54  1  0
 33 55  1  0
 35 56  1  0
M  END
>  <docking_score>  (3) 
-8.8900000000000006

$$$$
