
     RDKit          3D

 67 70  0  0  0  0  0  0  0  0999 V2000
  123.4607  122.6895  144.3245 C   0  0  0  0  0  0  0  0  0  0  0  0
  124.2621  123.7113  145.0658 C   0  0  0  0  0  0  0  0  0  0  0  0
  124.4354  125.0246  144.4208 C   0  0  2  0  0  0  0  0  0  0  0  0
  123.4711  126.0854  144.8763 C   0  0  0  0  0  0  0  0  0  0  0  0
  124.5940  125.0408  142.9427 C   0  0  2  0  0  0  0  0  0  0  0  0
  125.8856  125.7689  142.7234 N   0  0  0  0  0  0  0  0  0  0  0  0
  127.1198  125.0841  142.8508 C   0  0  0  0  0  0  0  0  0  0  0  0
  127.1243  123.8504  143.1512 O   0  0  0  0  0  0  0  0  0  0  0  0
  128.3243  125.8091  142.6365 N   0  0  0  0  0  0  0  0  0  0  0  0
  128.3549  126.7488  141.5459 C   0  0  0  0  0  0  0  0  0  0  0  0
  129.6936  127.3950  141.3113 C   0  0  0  0  0  0  0  0  0  0  0  0
  130.7562  126.4394  141.6804 C   0  0  0  0  0  0  0  0  0  0  0  0
  130.7041  126.1769  143.1637 C   0  0  0  0  0  0  0  0  0  0  0  0
  129.4092  125.5306  143.5469 C   0  0  0  0  0  0  0  0  0  0  0  0
  130.7044  125.1959  140.8494 C   0  0  0  0  0  0  0  0  0  0  0  0
  129.7174  124.5090  140.4950 O   0  0  0  0  0  0  0  0  0  0  0  0
  132.1116  125.1839  140.6888 N   0  0  0  0  0  0  0  0  0  0  0  0
  133.0545  124.1931  140.3139 C   0  0  0  0  0  0  0  0  0  0  0  0
  134.2954  124.5137  139.8166 C   0  0  0  0  0  0  0  0  0  0  0  0
  135.1773  123.5271  139.4688 C   0  0  0  0  0  0  0  0  0  0  0  0
  134.8388  122.2014  139.6100 C   0  0  0  0  0  0  0  0  0  0  0  0
  133.6079  121.8400  140.1035 C   0  0  0  0  0  0  0  0  0  0  0  0
  133.2682  120.5155  140.2446 F   0  0  0  0  0  0  0  0  0  0  0  0
  132.7441  122.8448  140.4440 C   0  0  0  0  0  0  0  0  0  0  0  0
  132.1131  126.5702  141.0694 C   0  0  1  0  0  0  0  0  0  0  0  0
  132.2682  127.4919  139.9287 C   0  0  0  0  0  0  0  0  0  0  0  0
  133.2299  128.4870  139.9672 C   0  0  0  0  0  0  0  0  0  0  0  0
  133.3783  129.3475  138.8983 C   0  0  0  0  0  0  0  0  0  0  0  0
  132.6046  129.2745  137.7610 C   0  0  0  0  0  0  0  0  0  0  0  0
  132.8211  130.3874  136.4173 Cl  0  0  0  0  0  0  0  0  0  0  0  0
  131.6405  128.2822  137.7140 C   0  0  0  0  0  0  0  0  0  0  0  0
  131.4914  127.4123  138.7961 C   0  0  0  0  0  0  0  0  0  0  0  0
  123.5819  125.7367  142.1701 C   0  0  0  0  0  0  0  0  0  0  0  0
  122.4020  125.2674  142.0263 O   0  0  0  0  0  0  0  0  0  0  0  0
  123.8304  126.9399  141.5559 O   0  0  0  0  0  0  0  0  0  0  0  0
  122.9406  127.4507  140.5892 C   0  0  0  0  0  0  0  0  0  0  0  0
  123.0724  121.9206  144.9875 H   0  0  0  0  0  0  0  0  0  0  0  0
  124.0032  122.2724  143.4462 H   0  0  0  0  0  0  0  0  0  0  0  0
  122.5520  123.2576  143.9221 H   0  0  0  0  0  0  0  0  0  0  0  0
  125.2955  123.2687  145.1933 H   0  0  0  0  0  0  0  0  0  0  0  0
  123.8708  123.8638  146.1125 H   0  0  0  0  0  0  0  0  0  0  0  0
  125.4539  125.4155  144.8738 H   0  0  0  0  0  0  0  0  0  0  0  0
  123.8919  127.0926  144.6353 H   0  0  0  0  0  0  0  0  0  0  0  0
  122.4844  125.9558  144.4305 H   0  0  0  0  0  0  0  0  0  0  0  0
  123.4299  126.0856  146.0057 H   0  0  0  0  0  0  0  0  0  0  0  0
  124.8032  124.0075  142.5502 H   0  0  0  0  0  0  0  0  0  0  0  0
  125.8436  126.7813  142.4735 H   0  0  0  0  0  0  0  0  0  0  0  0
  127.5350  127.5008  141.6156 H   0  0  0  0  0  0  0  0  0  0  0  0
  128.0981  126.1457  140.6230 H   0  0  0  0  0  0  0  0  0  0  0  0
  129.7533  128.2669  142.0237 H   0  0  0  0  0  0  0  0  0  0  0  0
  129.7207  127.7456  140.2593 H   0  0  0  0  0  0  0  0  0  0  0  0
  131.5667  125.5666  143.4531 H   0  0  0  0  0  0  0  0  0  0  0  0
  130.7880  127.1514  143.6850 H   0  0  0  0  0  0  0  0  0  0  0  0
  129.1106  125.7838  144.5835 H   0  0  0  0  0  0  0  0  0  0  0  0
  129.5439  124.4150  143.5322 H   0  0  0  0  0  0  0  0  0  0  0  0
  134.5768  125.5619  139.6987 H   0  0  0  0  0  0  0  0  0  0  0  0
  136.1798  123.7721  139.0664 H   0  0  0  0  0  0  0  0  0  0  0  0
  135.5329  121.4164  139.3368 H   0  0  0  0  0  0  0  0  0  0  0  0
  131.7507  122.5846  140.8419 H   0  0  0  0  0  0  0  0  0  0  0  0
  132.8858  126.7111  141.8742 H   0  0  0  0  0  0  0  0  0  0  0  0
  133.8616  128.5726  140.8577 H   0  0  0  0  0  0  0  0  0  0  0  0
  134.1328  130.1445  138.9048 H   0  0  0  0  0  0  0  0  0  0  0  0
  131.0128  128.1966  136.8329 H   0  0  0  0  0  0  0  0  0  0  0  0
  130.7362  126.6352  138.7553 H   0  0  0  0  0  0  0  0  0  0  0  0
  122.0145  127.8419  141.0610 H   0  0  0  0  0  0  0  0  0  0  0  0
  123.4416  128.3108  140.1140 H   0  0  0  0  0  0  0  0  0  0  0  0
  122.6584  126.7103  139.8353 H   0  0  0  0  0  0  0  0  0  0  0  0
  1  2  1  0
  2  3  1  0
  3  4  1  0
  3  5  1  0
  5  6  1  0
  6  7  1  0
  7  8  2  0
  7  9  1  0
  9 10  1  0
 10 11  1  0
 11 12  1  0
 12 13  1  0
 13 14  1  0
 12 15  1  0
 15 16  2  0
 15 17  1  0
 17 18  1  0
 18 19  2  0
 19 20  1  0
 20 21  2  0
 21 22  1  0
 22 23  1  0
 22 24  2  0
 17 25  1  0
 25 26  1  0
 26 27  2  0
 27 28  1  0
 28 29  2  0
 29 30  1  0
 29 31  1  0
 31 32  2  0
  5 33  1  0
 33 34  2  0
 33 35  1  0
 35 36  1  0
 14  9  1  0
 24 18  1  0
 32 26  1  0
 25 12  1  0
  1 37  1  0
  1 38  1  0
  1 39  1  0
  2 40  1  0
  2 41  1  0
  3 42  1  1
  4 43  1  0
  4 44  1  0
  4 45  1  0
  5 46  1  6
  6 47  1  0
 10 48  1  0
 10 49  1  0
 11 50  1  0
 11 51  1  0
 13 52  1  0
 13 53  1  0
 14 54  1  0
 14 55  1  0
 19 56  1  0
 20 57  1  0
 21 58  1  0
 24 59  1  0
 25 60  1  1
 27 61  1  0
 28 62  1  0
 31 63  1  0
 32 64  1  0
 36 65  1  0
 36 66  1  0
 36 67  1  0
M  END
>  <docking_score>  (1) 
-7.4580000000000002

$$$$

     RDKit          3D

 67 70  0  0  0  0  0  0  0  0999 V2000
  130.7766  131.1133  143.2563 C   0  0  0  0  0  0  0  0  0  0  0  0
  130.3583  132.0907  142.2048 C   0  0  0  0  0  0  0  0  0  0  0  0
  130.3567  133.5163  142.5770 C   0  0  2  0  0  0  0  0  0  0  0  0
  129.0653  134.0152  143.1652 C   0  0  0  0  0  0  0  0  0  0  0  0
  130.9029  134.4790  141.5844 C   0  0  2  0  0  0  0  0  0  0  0  0
  131.3619  133.6119  140.4513 N   0  0  0  0  0  0  0  0  0  0  0  0
  131.0264  133.9479  139.1160 C   0  0  0  0  0  0  0  0  0  0  0  0
  130.3351  134.9879  138.8859 O   0  0  0  0  0  0  0  0  0  0  0  0
  131.4789  133.1001  138.0678 N   0  0  0  0  0  0  0  0  0  0  0  0
  131.6572  131.7029  138.3669 C   0  0  0  0  0  0  0  0  0  0  0  0
  132.2431  130.8902  137.2440 C   0  0  0  0  0  0  0  0  0  0  0  0
  133.1550  131.7465  136.4603 C   0  0  0  0  0  0  0  0  0  0  0  0
  132.3642  132.8359  135.7824 C   0  0  0  0  0  0  0  0  0  0  0  0
  131.7140  133.7310  136.7910 C   0  0  0  0  0  0  0  0  0  0  0  0
  134.2924  132.2576  137.2877 C   0  0  0  0  0  0  0  0  0  0  0  0
  134.2928  132.7145  138.4551 O   0  0  0  0  0  0  0  0  0  0  0  0
  135.2252  132.0068  136.2516 N   0  0  0  0  0  0  0  0  0  0  0  0
  136.5367  132.4671  135.9707 C   0  0  0  0  0  0  0  0  0  0  0  0
  136.8043  133.3279  134.9327 C   0  0  0  0  0  0  0  0  0  0  0  0
  138.0840  133.7504  134.6967 C   0  0  0  0  0  0  0  0  0  0  0  0
  139.1221  133.3227  135.4914 C   0  0  0  0  0  0  0  0  0  0  0  0
  138.8957  132.4622  136.5390 C   0  0  0  0  0  0  0  0  0  0  0  0
  139.9324  132.0336  137.3335 F   0  0  0  0  0  0  0  0  0  0  0  0
  137.6077  132.0543  136.7541 C   0  0  0  0  0  0  0  0  0  0  0  0
  134.2551  131.1222  135.6656 C   0  0  1  0  0  0  0  0  0  0  0  0
  134.5469  129.6952  135.8969 C   0  0  0  0  0  0  0  0  0  0  0  0
  134.1170  128.7435  134.9880 C   0  0  0  0  0  0  0  0  0  0  0  0
  134.3931  127.4082  135.2018 C   0  0  0  0  0  0  0  0  0  0  0  0
  135.0914  126.9507  136.2973 C   0  0  0  0  0  0  0  0  0  0  0  0
  135.4259  125.2415  136.5381 Cl  0  0  0  0  0  0  0  0  0  0  0  0
  135.5252  127.8956  137.2113 C   0  0  0  0  0  0  0  0  0  0  0  0
  135.2452  129.2462  136.9938 C   0  0  0  0  0  0  0  0  0  0  0  0
  132.0423  135.2811  141.9891 C   0  0  0  0  0  0  0  0  0  0  0  0
  133.0347  135.4849  141.2101 O   0  0  0  0  0  0  0  0  0  0  0  0
  132.1173  135.8718  143.2270 O   0  0  0  0  0  0  0  0  0  0  0  0
  131.1951  136.8688  143.6045 C   0  0  0  0  0  0  0  0  0  0  0  0
  130.8801  131.5856  144.2298 H   0  0  0  0  0  0  0  0  0  0  0  0
  131.6739  130.5233  142.9620 H   0  0  0  0  0  0  0  0  0  0  0  0
  129.9031  130.3788  143.3451 H   0  0  0  0  0  0  0  0  0  0  0  0
  129.2943  131.8213  141.9303 H   0  0  0  0  0  0  0  0  0  0  0  0
  130.9544  131.9583  141.2567 H   0  0  0  0  0  0  0  0  0  0  0  0
  131.0763  133.5518  143.5130 H   0  0  0  0  0  0  0  0  0  0  0  0
  128.2152  133.4309  142.7344 H   0  0  0  0  0  0  0  0  0  0  0  0
  129.0669  133.9597  144.2544 H   0  0  0  0  0  0  0  0  0  0  0  0
  128.8723  135.0650  142.7940 H   0  0  0  0  0  0  0  0  0  0  0  0
  130.0799  135.0957  141.1286 H   0  0  0  0  0  0  0  0  0  0  0  0
  131.9321  132.7674  140.6774 H   0  0  0  0  0  0  0  0  0  0  0  0
  130.7307  131.2392  138.7781 H   0  0  0  0  0  0  0  0  0  0  0  0
  132.3880  131.6719  139.2309 H   0  0  0  0  0  0  0  0  0  0  0  0
  131.3806  130.6055  136.5759 H   0  0  0  0  0  0  0  0  0  0  0  0
  132.7105  129.9873  137.6874 H   0  0  0  0  0  0  0  0  0  0  0  0
  133.0223  133.3927  135.1062 H   0  0  0  0  0  0  0  0  0  0  0  0
  131.5772  132.3537  135.1688 H   0  0  0  0  0  0  0  0  0  0  0  0
  130.7739  134.1741  136.4067 H   0  0  0  0  0  0  0  0  0  0  0  0
  132.3976  134.5985  136.9983 H   0  0  0  0  0  0  0  0  0  0  0  0
  135.9898  133.6747  134.2937 H   0  0  0  0  0  0  0  0  0  0  0  0
  138.3130  134.4432  133.8633 H   0  0  0  0  0  0  0  0  0  0  0  0
  140.1369  133.6542  135.3095 H   0  0  0  0  0  0  0  0  0  0  0  0
  137.3968  131.3645  137.5864 H   0  0  0  0  0  0  0  0  0  0  0  0
  134.1466  131.3923  134.5794 H   0  0  0  0  0  0  0  0  0  0  0  0
  133.5584  129.0742  134.1060 H   0  0  0  0  0  0  0  0  0  0  0  0
  134.0630  126.6348  134.4965 H   0  0  0  0  0  0  0  0  0  0  0  0
  136.0779  127.5695  138.0865 H   0  0  0  0  0  0  0  0  0  0  0  0
  135.5878  129.9839  137.7110 H   0  0  0  0  0  0  0  0  0  0  0  0
  131.5872  137.4841  144.4417 H   0  0  0  0  0  0  0  0  0  0  0  0
  131.0815  137.5452  142.7407 H   0  0  0  0  0  0  0  0  0  0  0  0
  130.2236  136.4621  143.8997 H   0  0  0  0  0  0  0  0  0  0  0  0
  1  2  1  0
  2  3  1  0
  3  4  1  0
  3  5  1  0
  5  6  1  0
  6  7  1  0
  7  8  2  0
  7  9  1  0
  9 10  1  0
 10 11  1  0
 11 12  1  0
 12 13  1  0
 13 14  1  0
 12 15  1  0
 15 16  2  0
 15 17  1  0
 17 18  1  0
 18 19  2  0
 19 20  1  0
 20 21  2  0
 21 22  1  0
 22 23  1  0
 22 24  2  0
 17 25  1  0
 25 26  1  0
 26 27  2  0
 27 28  1  0
 28 29  2  0
 29 30  1  0
 29 31  1  0
 31 32  2  0
  5 33  1  0
 33 34  2  0
 33 35  1  0
 35 36  1  0
 14  9  1  0
 24 18  1  0
 32 26  1  0
 25 12  1  0
  1 37  1  0
  1 38  1  0
  1 39  1  0
  2 40  1  0
  2 41  1  0
  3 42  1  1
  4 43  1  0
  4 44  1  0
  4 45  1  0
  5 46  1  6
  6 47  1  0
 10 48  1  0
 10 49  1  0
 11 50  1  0
 11 51  1  0
 13 52  1  0
 13 53  1  0
 14 54  1  0
 14 55  1  0
 19 56  1  0
 20 57  1  0
 21 58  1  0
 24 59  1  0
 25 60  1  6
 27 61  1  0
 28 62  1  0
 31 63  1  0
 32 64  1  0
 36 65  1  0
 36 66  1  0
 36 67  1  0
M  END
>  <docking_score>  (2) 
-7.452

$$$$

     RDKit          3D

 67 70  0  0  0  0  0  0  0  0999 V2000
  135.4035  130.4293  145.2371 C   0  0  0  0  0  0  0  0  0  0  0  0
  135.7787  130.8970  143.8674 C   0  0  0  0  0  0  0  0  0  0  0  0
  137.2168  131.0140  143.5692 C   0  0  2  0  0  0  0  0  0  0  0  0
  137.6759  132.3981  143.2001 C   0  0  0  0  0  0  0  0  0  0  0  0
  137.8096  129.9921  142.6666 C   0  0  2  0  0  0  0  0  0  0  0  0
  136.6264  129.2250  142.1589 N   0  0  0  0  0  0  0  0  0  0  0  0
  136.1176  129.4775  140.8606 C   0  0  0  0  0  0  0  0  0  0  0  0
  136.6705  130.3570  140.1304 O   0  0  0  0  0  0  0  0  0  0  0  0
  134.9926  128.7304  140.4145 N   0  0  0  0  0  0  0  0  0  0  0  0
  133.8289  128.7026  141.2621 C   0  0  0  0  0  0  0  0  0  0  0  0
  132.7223  127.8040  140.7798 C   0  0  0  0  0  0  0  0  0  0  0  0
  133.3158  126.6595  140.0609 C   0  0  0  0  0  0  0  0  0  0  0  0
  133.9948  127.1497  138.8077 C   0  0  0  0  0  0  0  0  0  0  0  0
  135.1291  128.0688  139.1389 C   0  0  0  0  0  0  0  0  0  0  0  0
  134.2057  125.8436  140.9450 C   0  0  0  0  0  0  0  0  0  0  0  0
  135.0581  126.2143  141.7862 O   0  0  0  0  0  0  0  0  0  0  0  0
  133.6850  124.6294  140.4341 N   0  0  0  0  0  0  0  0  0  0  0  0
  134.1372  123.2854  140.4289 C   0  0  0  0  0  0  0  0  0  0  0  0
  133.2921  122.2291  140.1840 C   0  0  0  0  0  0  0  0  0  0  0  0
  133.7691  120.9467  140.1856 C   0  0  0  0  0  0  0  0  0  0  0  0
  135.0984  120.6927  140.4316 C   0  0  0  0  0  0  0  0  0  0  0  0
  135.9752  121.7215  140.6809 C   0  0  0  0  0  0  0  0  0  0  0  0
  137.3037  121.4688  140.9275 F   0  0  0  0  0  0  0  0  0  0  0  0
  135.4738  122.9943  140.6738 C   0  0  0  0  0  0  0  0  0  0  0  0
  132.5552  125.3783  139.9547 C   0  0  1  0  0  0  0  0  0  0  0  0
  131.3501  125.2219  140.7904 C   0  0  0  0  0  0  0  0  0  0  0  0
  130.1189  125.6420  140.3170 C   0  0  0  0  0  0  0  0  0  0  0  0
  128.9901  125.4924  141.0970 C   0  0  0  0  0  0  0  0  0  0  0  0
  129.0144  124.9338  142.3558 C   0  0  0  0  0  0  0  0  0  0  0  0
  127.5563  124.7582  143.3224 Cl  0  0  0  0  0  0  0  0  0  0  0  0
  130.2415  124.5108  142.8370 C   0  0  0  0  0  0  0  0  0  0  0  0
  131.3828  124.6627  142.0469 C   0  0  0  0  0  0  0  0  0  0  0  0
  138.7166  129.0254  143.2569 C   0  0  0  0  0  0  0  0  0  0  0  0
  139.9801  129.2149  143.2841 O   0  0  0  0  0  0  0  0  0  0  0  0
  138.2705  127.8571  143.8251 O   0  0  0  0  0  0  0  0  0  0  0  0
  138.0127  127.7836  145.2090 C   0  0  0  0  0  0  0  0  0  0  0  0
  135.2562  129.3528  145.2711 H   0  0  0  0  0  0  0  0  0  0  0  0
  134.5483  130.9986  145.6664 H   0  0  0  0  0  0  0  0  0  0  0  0
  136.3182  130.6506  145.8889 H   0  0  0  0  0  0  0  0  0  0  0  0
  135.3345  131.9316  143.7556 H   0  0  0  0  0  0  0  0  0  0  0  0
  135.2864  130.2722  143.0679 H   0  0  0  0  0  0  0  0  0  0  0  0
  137.7244  130.8665  144.6256 H   0  0  0  0  0  0  0  0  0  0  0  0
  137.7691  132.4702  142.0885 H   0  0  0  0  0  0  0  0  0  0  0  0
  137.0050  133.1654  143.5879 H   0  0  0  0  0  0  0  0  0  0  0  0
  138.7378  132.5421  143.5589 H   0  0  0  0  0  0  0  0  0  0  0  0
  138.2313  130.4712  141.7402 H   0  0  0  0  0  0  0  0  0  0  0  0
  136.2001  128.5067  142.7848 H   0  0  0  0  0  0  0  0  0  0  0  0
  133.4598  129.7264  141.5033 H   0  0  0  0  0  0  0  0  0  0  0  0
  134.1910  128.2987  142.2556 H   0  0  0  0  0  0  0  0  0  0  0  0
  132.1275  128.4062  140.0350 H   0  0  0  0  0  0  0  0  0  0  0  0
  132.0972  127.5362  141.6561 H   0  0  0  0  0  0  0  0  0  0  0  0
  134.3257  126.2890  138.2159 H   0  0  0  0  0  0  0  0  0  0  0  0
  133.2449  127.7046  138.2091 H   0  0  0  0  0  0  0  0  0  0  0  0
  135.3039  128.8159  138.3395 H   0  0  0  0  0  0  0  0  0  0  0  0
  136.0752  127.4660  139.2051 H   0  0  0  0  0  0  0  0  0  0  0  0
  132.2346  122.4164  139.9878 H   0  0  0  0  0  0  0  0  0  0  0  0
  133.0986  120.0870  139.9904 H   0  0  0  0  0  0  0  0  0  0  0  0
  135.4815  119.6798  140.4338 H   0  0  0  0  0  0  0  0  0  0  0  0
  136.1535  123.8383  140.8705 H   0  0  0  0  0  0  0  0  0  0  0  0
  132.3941  125.1145  138.8735 H   0  0  0  0  0  0  0  0  0  0  0  0
  130.0651  126.0912  139.3196 H   0  0  0  0  0  0  0  0  0  0  0  0
  128.0029  125.8178  140.7446 H   0  0  0  0  0  0  0  0  0  0  0  0
  130.2968  124.0666  143.8256 H   0  0  0  0  0  0  0  0  0  0  0  0
  132.3422  124.3289  142.4263 H   0  0  0  0  0  0  0  0  0  0  0  0
  137.0472  128.2686  145.4653 H   0  0  0  0  0  0  0  0  0  0  0  0
  137.9065  126.7148  145.4598 H   0  0  0  0  0  0  0  0  0  0  0  0
  138.8006  128.2403  145.8148 H   0  0  0  0  0  0  0  0  0  0  0  0
  1  2  1  0
  2  3  1  0
  3  4  1  0
  3  5  1  0
  5  6  1  0
  6  7  1  0
  7  8  2  0
  7  9  1  0
  9 10  1  0
 10 11  1  0
 11 12  1  0
 12 13  1  0
 13 14  1  0
 12 15  1  0
 15 16  2  0
 15 17  1  0
 17 18  1  0
 18 19  2  0
 19 20  1  0
 20 21  2  0
 21 22  1  0
 22 23  1  0
 22 24  2  0
 17 25  1  0
 25 26  1  0
 26 27  2  0
 27 28  1  0
 28 29  2  0
 29 30  1  0
 29 31  1  0
 31 32  2  0
  5 33  1  0
 33 34  2  0
 33 35  1  0
 35 36  1  0
 14  9  1  0
 24 18  1  0
 32 26  1  0
 25 12  1  0
  1 37  1  0
  1 38  1  0
  1 39  1  0
  2 40  1  0
  2 41  1  0
  3 42  1  1
  4 43  1  0
  4 44  1  0
  4 45  1  0
  5 46  1  6
  6 47  1  0
 10 48  1  0
 10 49  1  0
 11 50  1  0
 11 51  1  0
 13 52  1  0
 13 53  1  0
 14 54  1  0
 14 55  1  0
 19 56  1  0
 20 57  1  0
 21 58  1  0
 24 59  1  0
 25 60  1  6
 27 61  1  0
 28 62  1  0
 31 63  1  0
 32 64  1  0
 36 65  1  0
 36 66  1  0
 36 67  1  0
M  END
>  <docking_score>  (3) 
-7.2140000000000004

$$$$
