
     RDKit          3D

 70 72  0  0  0  0  0  0  0  0999 V2000
  130.1273  130.6359  138.4848 C   0  0  0  0  0  0  0  0  0  0  0  0
  130.5997  129.3707  137.7701 C   0  0  0  0  0  0  0  0  0  0  0  0
  130.1332  129.3873  136.3309 C   0  0  0  0  0  0  0  0  0  0  0  0
  129.9569  128.2799  138.3987 O   0  0  0  0  0  0  0  0  0  0  0  0
  130.6354  127.1580  138.8453 C   0  0  0  0  0  0  0  0  0  0  0  0
  129.9609  126.0728  138.7728 O   0  0  0  0  0  0  0  0  0  0  0  0
  132.0199  127.1483  139.3706 C   0  0  0  0  0  0  0  0  0  0  0  0
  132.0659  126.2362  140.4958 N   0  0  0  0  0  0  0  0  0  0  0  0
  132.6902  124.9958  140.3524 C   0  0  0  0  0  0  0  0  0  0  0  0
  132.0324  123.7945  140.2492 C   0  0  0  0  0  0  0  0  0  0  0  0
  132.7538  122.6344  140.1155 C   0  0  0  0  0  0  0  0  0  0  0  0
  134.1291  122.5988  140.0776 C   0  0  0  0  0  0  0  0  0  0  0  0
  134.8015  123.8068  140.1812 C   0  0  0  0  0  0  0  0  0  0  0  0
  136.5414  123.8381  140.1411 Cl  0  0  0  0  0  0  0  0  0  0  0  0
  134.0989  124.9870  140.3163 C   0  0  0  0  0  0  0  0  0  0  0  0
  131.3439  126.8305  141.9337 S   0  0  0  0  0  0  0  0  0  0  0  0
  130.8355  128.2564  141.7473 O   0  0  0  0  0  0  0  0  0  0  0  0
  130.1431  126.0480  142.3558 O   0  0  0  0  0  0  0  0  0  0  0  0
  132.5617  126.8986  143.1704 C   0  0  0  0  0  0  0  0  0  0  0  0
  132.5100  126.0136  144.2188 C   0  0  0  0  0  0  0  0  0  0  0  0
  133.4654  126.0441  145.2206 C   0  0  0  0  0  0  0  0  0  0  0  0
  134.4940  126.9961  145.1515 C   0  0  0  0  0  0  0  0  0  0  0  0
  134.5734  127.8945  144.1172 C   0  0  0  0  0  0  0  0  0  0  0  0
  135.5540  128.8885  143.9704 N   0  0  0  0  0  0  0  0  0  0  0  0
  136.7806  128.7940  143.2941 C   0  0  0  0  0  0  0  0  0  0  0  0
  137.0942  127.7201  142.7390 O   0  0  0  0  0  0  0  0  0  0  0  0
  137.7443  129.9327  143.2043 C   0  0  0  0  0  0  0  0  0  0  0  0
  138.1873  130.1421  141.7961 C   0  0  0  0  0  0  0  0  0  0  0  0
  137.0809  129.9519  140.9066 N   0  0  0  0  0  0  0  0  0  0  0  0
  137.1413  130.5278  139.6051 C   0  0  0  0  0  0  0  0  0  0  0  0
  138.1503  131.1761  139.2829 O   0  0  0  0  0  0  0  0  0  0  0  0
  136.1064  130.3706  138.7239 O   0  0  0  0  0  0  0  0  0  0  0  0
  135.2814  129.2407  138.7243 C   0  0  0  0  0  0  0  0  0  0  0  0
  135.0423  128.6350  137.4124 C   0  0  0  0  0  0  0  0  0  0  0  0
  134.2252  129.3018  136.5073 C   0  0  0  0  0  0  0  0  0  0  0  0
  133.9608  128.7714  135.2514 C   0  0  0  0  0  0  0  0  0  0  0  0
  134.5125  127.5627  134.8830 C   0  0  0  0  0  0  0  0  0  0  0  0
  135.3169  126.9278  135.8018 C   0  0  0  0  0  0  0  0  0  0  0  0
  135.5911  127.4429  137.0596 C   0  0  0  0  0  0  0  0  0  0  0  0
  133.5745  127.8124  143.1322 C   0  0  0  0  0  0  0  0  0  0  0  0
  130.1161  131.5129  137.8123 H   0  0  0  0  0  0  0  0  0  0  0  0
  130.8240  130.8670  139.3155 H   0  0  0  0  0  0  0  0  0  0  0  0
  129.1348  130.4066  138.9025 H   0  0  0  0  0  0  0  0  0  0  0  0
  131.6797  129.2857  137.8712 H   0  0  0  0  0  0  0  0  0  0  0  0
  129.1384  129.9074  136.3379 H   0  0  0  0  0  0  0  0  0  0  0  0
  130.0203  128.3438  135.9975 H   0  0  0  0  0  0  0  0  0  0  0  0
  130.8317  129.9833  135.7087 H   0  0  0  0  0  0  0  0  0  0  0  0
  132.3239  128.1848  139.7069 H   0  0  0  0  0  0  0  0  0  0  0  0
  132.7648  126.8956  138.5911 H   0  0  0  0  0  0  0  0  0  0  0  0
  130.9581  123.7979  140.2793 H   0  0  0  0  0  0  0  0  0  0  0  0
  132.2284  121.6937  140.0348 H   0  0  0  0  0  0  0  0  0  0  0  0
  134.6678  121.6667  139.9711 H   0  0  0  0  0  0  0  0  0  0  0  0
  134.6681  125.9008  140.3932 H   0  0  0  0  0  0  0  0  0  0  0  0
  131.7057  125.2912  144.2439 H   0  0  0  0  0  0  0  0  0  0  0  0
  133.4415  125.3602  146.0484 H   0  0  0  0  0  0  0  0  0  0  0  0
  135.2442  127.0097  145.9373 H   0  0  0  0  0  0  0  0  0  0  0  0
  135.3754  129.8484  144.4124 H   0  0  0  0  0  0  0  0  0  0  0  0
  137.1608  130.8346  143.5404 H   0  0  0  0  0  0  0  0  0  0  0  0
  138.5932  129.8330  143.8809 H   0  0  0  0  0  0  0  0  0  0  0  0
  139.0351  129.4471  141.6023 H   0  0  0  0  0  0  0  0  0  0  0  0
  138.6164  131.1640  141.7238 H   0  0  0  0  0  0  0  0  0  0  0  0
  136.2369  129.3985  141.2022 H   0  0  0  0  0  0  0  0  0  0  0  0
  134.2961  129.5460  139.1457 H   0  0  0  0  0  0  0  0  0  0  0  0
  135.7082  128.4998  139.4381 H   0  0  0  0  0  0  0  0  0  0  0  0
  133.8001  130.2477  136.8097 H   0  0  0  0  0  0  0  0  0  0  0  0
  133.3221  129.3053  134.5603 H   0  0  0  0  0  0  0  0  0  0  0  0
  134.3075  127.1398  133.8939 H   0  0  0  0  0  0  0  0  0  0  0  0
  135.7433  125.9855  135.5069 H   0  0  0  0  0  0  0  0  0  0  0  0
  136.2278  126.9089  137.7535 H   0  0  0  0  0  0  0  0  0  0  0  0
  133.6313  128.5128  142.3212 H   0  0  0  0  0  0  0  0  0  0  0  0
  1  2  1  0
  2  3  1  0
  2  4  1  0
  4  5  1  0
  5  6  2  0
  5  7  1  0
  7  8  1  0
  8  9  1  0
  9 10  2  0
 10 11  1  0
 11 12  2  0
 12 13  1  0
 13 14  1  0
 13 15  2  0
  8 16  1  0
 16 17  2  0
 16 18  2  0
 16 19  1  0
 19 20  2  0
 20 21  1  0
 21 22  2  0
 22 23  1  0
 23 24  1  0
 24 25  1  0
 25 26  2  0
 25 27  1  0
 27 28  1  0
 28 29  1  0
 29 30  1  0
 30 31  2  0
 30 32  1  0
 32 33  1  0
 33 34  1  0
 34 35  2  0
 35 36  1  0
 36 37  2  0
 37 38  1  0
 38 39  2  0
 23 40  2  0
 15  9  1  0
 40 19  1  0
 39 34  1  0
  1 41  1  0
  1 42  1  0
  1 43  1  0
  2 44  1  0
  3 45  1  0
  3 46  1  0
  3 47  1  0
  7 48  1  0
  7 49  1  0
 10 50  1  0
 11 51  1  0
 12 52  1  0
 15 53  1  0
 20 54  1  0
 21 55  1  0
 22 56  1  0
 24 57  1  0
 27 58  1  0
 27 59  1  0
 28 60  1  0
 28 61  1  0
 29 62  1  0
 33 63  1  0
 33 64  1  0
 35 65  1  0
 36 66  1  0
 37 67  1  0
 38 68  1  0
 39 69  1  0
 40 70  1  0
M  END
>  <docking_score>  (1) 
-6.5999999999999996

$$$$

     RDKit          3D

 70 72  0  0  0  0  0  0  0  0999 V2000
  129.3799  127.1637  138.8092 C   0  0  0  0  0  0  0  0  0  0  0  0
  130.3847  128.3057  138.6639 C   0  0  0  0  0  0  0  0  0  0  0  0
  130.1900  128.9971  137.3323 C   0  0  0  0  0  0  0  0  0  0  0  0
  131.6710  127.7201  138.6396 O   0  0  0  0  0  0  0  0  0  0  0  0
  132.6688  128.0499  139.5420 C   0  0  0  0  0  0  0  0  0  0  0  0
  132.5011  129.1790  140.1208 O   0  0  0  0  0  0  0  0  0  0  0  0
  133.8499  127.2133  139.8549 C   0  0  0  0  0  0  0  0  0  0  0  0
  133.3760  125.9297  140.3322 N   0  0  0  0  0  0  0  0  0  0  0  0
  132.8187  125.8320  141.6086 C   0  0  0  0  0  0  0  0  0  0  0  0
  131.5140  125.4915  141.8701 C   0  0  0  0  0  0  0  0  0  0  0  0
  131.0753  125.4311  143.1693 C   0  0  0  0  0  0  0  0  0  0  0  0
  131.8808  125.6971  144.2531 C   0  0  0  0  0  0  0  0  0  0  0  0
  133.1993  126.0418  143.9984 C   0  0  0  0  0  0  0  0  0  0  0  0
  134.2760  126.3919  145.3206 Cl  0  0  0  0  0  0  0  0  0  0  0  0
  133.6647  126.1094  142.7009 C   0  0  0  0  0  0  0  0  0  0  0  0
  133.5374  124.6411  139.2117 S   0  0  0  0  0  0  0  0  0  0  0  0
  132.2601  123.8107  139.1382 O   0  0  0  0  0  0  0  0  0  0  0  0
  133.7732  125.1055  137.8113 O   0  0  0  0  0  0  0  0  0  0  0  0
  134.7867  123.5757  139.7784 C   0  0  0  0  0  0  0  0  0  0  0  0
  135.8656  124.0964  140.4492 C   0  0  0  0  0  0  0  0  0  0  0  0
  136.8781  123.2729  140.9117 C   0  0  0  0  0  0  0  0  0  0  0  0
  136.7883  121.8908  140.6856 C   0  0  0  0  0  0  0  0  0  0  0  0
  135.7233  121.3396  140.0184 C   0  0  0  0  0  0  0  0  0  0  0  0
  135.5537  119.9753  139.7339 N   0  0  0  0  0  0  0  0  0  0  0  0
  136.0671  119.2531  138.6449 C   0  0  0  0  0  0  0  0  0  0  0  0
  136.7633  119.8419  137.7914 O   0  0  0  0  0  0  0  0  0  0  0  0
  135.8176  117.7920  138.4538 C   0  0  0  0  0  0  0  0  0  0  0  0
  136.7949  117.2093  137.4901 C   0  0  0  0  0  0  0  0  0  0  0  0
  136.2618  117.2714  136.1621 N   0  0  0  0  0  0  0  0  0  0  0  0
  137.1234  117.6572  135.0953 C   0  0  0  0  0  0  0  0  0  0  0  0
  138.3084  117.9274  135.3500 O   0  0  0  0  0  0  0  0  0  0  0  0
  136.6552  117.7295  133.8118 O   0  0  0  0  0  0  0  0  0  0  0  0
  137.4387  117.3900  132.7035 C   0  0  0  0  0  0  0  0  0  0  0  0
  136.8963  116.3312  131.8492 C   0  0  0  0  0  0  0  0  0  0  0  0
  137.6270  115.9295  130.7374 C   0  0  0  0  0  0  0  0  0  0  0  0
  137.1583  114.9334  129.8907 C   0  0  0  0  0  0  0  0  0  0  0  0
  135.9483  114.3239  130.1462 C   0  0  0  0  0  0  0  0  0  0  0  0
  135.2494  114.7444  131.2548 C   0  0  0  0  0  0  0  0  0  0  0  0
  135.7023  115.7370  132.1103 C   0  0  0  0  0  0  0  0  0  0  0  0
  134.7289  122.2277  139.5744 C   0  0  0  0  0  0  0  0  0  0  0  0
  128.5389  127.4329  139.4738 H   0  0  0  0  0  0  0  0  0  0  0  0
  129.8873  126.2868  139.2591 H   0  0  0  0  0  0  0  0  0  0  0  0
  129.0521  126.9047  137.7906 H   0  0  0  0  0  0  0  0  0  0  0  0
  130.2881  128.9766  139.5152 H   0  0  0  0  0  0  0  0  0  0  0  0
  129.1864  128.6616  136.9574 H   0  0  0  0  0  0  0  0  0  0  0  0
  130.9881  128.6588  136.6531 H   0  0  0  0  0  0  0  0  0  0  0  0
  130.1577  130.0969  137.4729 H   0  0  0  0  0  0  0  0  0  0  0  0
  134.4850  127.7057  140.6512 H   0  0  0  0  0  0  0  0  0  0  0  0
  134.5378  127.1159  138.9927 H   0  0  0  0  0  0  0  0  0  0  0  0
  130.8658  125.2823  141.0388 H   0  0  0  0  0  0  0  0  0  0  0  0
  130.0475  125.1622  143.3662 H   0  0  0  0  0  0  0  0  0  0  0  0
  131.5035  125.6404  145.2654 H   0  0  0  0  0  0  0  0  0  0  0  0
  134.6987  126.3821  142.5549 H   0  0  0  0  0  0  0  0  0  0  0  0
  135.9062  125.1652  140.6086 H   0  0  0  0  0  0  0  0  0  0  0  0
  137.7297  123.6616  141.4382 H   0  0  0  0  0  0  0  0  0  0  0  0
  137.5829  121.2499  141.0574 H   0  0  0  0  0  0  0  0  0  0  0  0
  134.9707  119.3830  140.4107 H   0  0  0  0  0  0  0  0  0  0  0  0
  135.9878  117.3330  139.4673 H   0  0  0  0  0  0  0  0  0  0  0  0
  134.7901  117.5639  138.1699 H   0  0  0  0  0  0  0  0  0  0  0  0
  137.0238  116.1732  137.8267 H   0  0  0  0  0  0  0  0  0  0  0  0
  137.7468  117.7729  137.5897 H   0  0  0  0  0  0  0  0  0  0  0  0
  135.2544  117.0377  135.9711 H   0  0  0  0  0  0  0  0  0  0  0  0
  138.4285  117.0494  133.0853 H   0  0  0  0  0  0  0  0  0  0  0  0
  137.6339  118.3182  132.1195 H   0  0  0  0  0  0  0  0  0  0  0  0
  138.5731  116.4159  130.5499 H   0  0  0  0  0  0  0  0  0  0  0  0
  137.7414  114.6342  129.0299 H   0  0  0  0  0  0  0  0  0  0  0  0
  135.5739  113.5379  129.4820 H   0  0  0  0  0  0  0  0  0  0  0  0
  134.3065  114.2640  131.4471 H   0  0  0  0  0  0  0  0  0  0  0  0
  135.1191  116.0398  132.9707 H   0  0  0  0  0  0  0  0  0  0  0  0
  133.8939  121.8021  139.0516 H   0  0  0  0  0  0  0  0  0  0  0  0
  1  2  1  0
  2  3  1  0
  2  4  1  0
  4  5  1  0
  5  6  2  0
  5  7  1  0
  7  8  1  0
  8  9  1  0
  9 10  2  0
 10 11  1  0
 11 12  2  0
 12 13  1  0
 13 14  1  0
 13 15  2  0
  8 16  1  0
 16 17  2  0
 16 18  2  0
 16 19  1  0
 19 20  2  0
 20 21  1  0
 21 22  2  0
 22 23  1  0
 23 24  1  0
 24 25  1  0
 25 26  2  0
 25 27  1  0
 27 28  1  0
 28 29  1  0
 29 30  1  0
 30 31  2  0
 30 32  1  0
 32 33  1  0
 33 34  1  0
 34 35  2  0
 35 36  1  0
 36 37  2  0
 37 38  1  0
 38 39  2  0
 23 40  2  0
 15  9  1  0
 40 19  1  0
 39 34  1  0
  1 41  1  0
  1 42  1  0
  1 43  1  0
  2 44  1  0
  3 45  1  0
  3 46  1  0
  3 47  1  0
  7 48  1  0
  7 49  1  0
 10 50  1  0
 11 51  1  0
 12 52  1  0
 15 53  1  0
 20 54  1  0
 21 55  1  0
 22 56  1  0
 24 57  1  0
 27 58  1  0
 27 59  1  0
 28 60  1  0
 28 61  1  0
 29 62  1  0
 33 63  1  0
 33 64  1  0
 35 65  1  0
 36 66  1  0
 37 67  1  0
 38 68  1  0
 39 69  1  0
 40 70  1  0
M  END
>  <docking_score>  (2) 
-6.4989999999999997

$$$$

     RDKit          3D

 70 72  0  0  0  0  0  0  0  0999 V2000
  128.2865  132.8997  141.2406 C   0  0  0  0  0  0  0  0  0  0  0  0
  129.3832  132.7227  142.2898 C   0  0  0  0  0  0  0  0  0  0  0  0
  128.7694  132.3286  143.6153 C   0  0  0  0  0  0  0  0  0  0  0  0
  129.9832  133.9893  142.4742 O   0  0  0  0  0  0  0  0  0  0  0  0
  131.2579  134.2942  142.0262 C   0  0  0  0  0  0  0  0  0  0  0  0
  131.6918  135.4343  142.4133 O   0  0  0  0  0  0  0  0  0  0  0  0
  132.0967  133.4211  141.1738 C   0  0  0  0  0  0  0  0  0  0  0  0
  132.1711  134.0193  139.8560 N   0  0  0  0  0  0  0  0  0  0  0  0
  131.0156  134.1211  139.0791 C   0  0  0  0  0  0  0  0  0  0  0  0
  130.5740  133.1611  138.2017 C   0  0  0  0  0  0  0  0  0  0  0  0
  129.4223  133.3736  137.4859 C   0  0  0  0  0  0  0  0  0  0  0  0
  128.6636  134.5166  137.5949 C   0  0  0  0  0  0  0  0  0  0  0  0
  129.1020  135.4912  138.4782 C   0  0  0  0  0  0  0  0  0  0  0  0
  128.1927  136.9634  138.6678 Cl  0  0  0  0  0  0  0  0  0  0  0  0
  130.2569  135.3014  139.2095 C   0  0  0  0  0  0  0  0  0  0  0  0
  133.7290  134.5792  139.4068 S   0  0  0  0  0  0  0  0  0  0  0  0
  133.6641  135.4427  138.1512 O   0  0  0  0  0  0  0  0  0  0  0  0
  134.3603  135.4538  140.4407 O   0  0  0  0  0  0  0  0  0  0  0  0
  134.7120  133.2034  139.0092 C   0  0  0  0  0  0  0  0  0  0  0  0
  135.8489  132.9526  139.7370 C   0  0  0  0  0  0  0  0  0  0  0  0
  136.6535  131.8648  139.4431 C   0  0  0  0  0  0  0  0  0  0  0  0
  136.2913  131.0158  138.3860 C   0  0  0  0  0  0  0  0  0  0  0  0
  135.1616  131.2394  137.6397 C   0  0  0  0  0  0  0  0  0  0  0  0
  134.7272  130.4562  136.5586 N   0  0  0  0  0  0  0  0  0  0  0  0
  133.4570  129.8920  136.3603 C   0  0  0  0  0  0  0  0  0  0  0  0
  132.5655  130.0711  137.2164 O   0  0  0  0  0  0  0  0  0  0  0  0
  133.1140  129.0750  135.1568 C   0  0  0  0  0  0  0  0  0  0  0  0
  133.3184  127.6228  135.4266 C   0  0  0  0  0  0  0  0  0  0  0  0
  132.9406  127.3225  136.7751 N   0  0  0  0  0  0  0  0  0  0  0  0
  133.3150  126.0639  137.3274 C   0  0  0  0  0  0  0  0  0  0  0  0
  133.9564  125.2674  136.6229 O   0  0  0  0  0  0  0  0  0  0  0  0
  132.9744  125.7365  138.6115 O   0  0  0  0  0  0  0  0  0  0  0  0
  133.9202  125.3462  139.5658 C   0  0  0  0  0  0  0  0  0  0  0  0
  134.1083  123.9011  139.7118 C   0  0  0  0  0  0  0  0  0  0  0  0
  135.3749  123.3678  139.5050 C   0  0  0  0  0  0  0  0  0  0  0  0
  135.6093  122.0043  139.6257 C   0  0  0  0  0  0  0  0  0  0  0  0
  134.5759  121.1534  139.9561 C   0  0  0  0  0  0  0  0  0  0  0  0
  133.3341  121.7128  140.1542 C   0  0  0  0  0  0  0  0  0  0  0  0
  133.0826  123.0714  140.0378 C   0  0  0  0  0  0  0  0  0  0  0  0
  134.3872  132.3593  137.9874 C   0  0  0  0  0  0  0  0  0  0  0  0
  127.9159  131.9306  140.8600 H   0  0  0  0  0  0  0  0  0  0  0  0
  128.6967  133.4580  140.3752 H   0  0  0  0  0  0  0  0  0  0  0  0
  127.4959  133.5022  141.7138 H   0  0  0  0  0  0  0  0  0  0  0  0
  130.1146  132.0049  141.9240 H   0  0  0  0  0  0  0  0  0  0  0  0
  128.3856  131.2829  143.4756 H   0  0  0  0  0  0  0  0  0  0  0  0
  127.9380  133.0197  143.8245 H   0  0  0  0  0  0  0  0  0  0  0  0
  129.5465  132.3099  144.4067 H   0  0  0  0  0  0  0  0  0  0  0  0
  131.6442  132.3870  141.0984 H   0  0  0  0  0  0  0  0  0  0  0  0
  133.0971  133.2391  141.6124 H   0  0  0  0  0  0  0  0  0  0  0  0
  131.1523  132.2612  138.0980 H   0  0  0  0  0  0  0  0  0  0  0  0
  129.0818  132.6130  136.7979 H   0  0  0  0  0  0  0  0  0  0  0  0
  127.7600  134.6529  137.0159 H   0  0  0  0  0  0  0  0  0  0  0  0
  130.5561  136.0894  139.8835 H   0  0  0  0  0  0  0  0  0  0  0  0
  136.1013  133.6243  140.5460 H   0  0  0  0  0  0  0  0  0  0  0  0
  137.5465  131.6524  140.0010 H   0  0  0  0  0  0  0  0  0  0  0  0
  136.9236  130.1603  138.1656 H   0  0  0  0  0  0  0  0  0  0  0  0
  135.4222  130.2475  135.7699 H   0  0  0  0  0  0  0  0  0  0  0  0
  132.0181  129.2620  134.9812 H   0  0  0  0  0  0  0  0  0  0  0  0
  133.6393  129.3931  134.2561 H   0  0  0  0  0  0  0  0  0  0  0  0
  134.3824  127.3845  135.2019 H   0  0  0  0  0  0  0  0  0  0  0  0
  132.7213  127.0524  134.6838 H   0  0  0  0  0  0  0  0  0  0  0  0
  132.3973  128.0136  137.3523 H   0  0  0  0  0  0  0  0  0  0  0  0
  133.5886  125.7500  140.5500 H   0  0  0  0  0  0  0  0  0  0  0  0
  134.8820  125.8557  139.3293 H   0  0  0  0  0  0  0  0  0  0  0  0
  136.1747  124.0465  139.2469 H   0  0  0  0  0  0  0  0  0  0  0  0
  136.6023  121.6077  139.4609 H   0  0  0  0  0  0  0  0  0  0  0  0
  134.7549  120.0774  140.0527 H   0  0  0  0  0  0  0  0  0  0  0  0
  132.5334  121.0424  140.4115 H   0  0  0  0  0  0  0  0  0  0  0  0
  132.0891  123.4699  140.1996 H   0  0  0  0  0  0  0  0  0  0  0  0
  133.5029  132.5393  137.4068 H   0  0  0  0  0  0  0  0  0  0  0  0
  1  2  1  0
  2  3  1  0
  2  4  1  0
  4  5  1  0
  5  6  2  0
  5  7  1  0
  7  8  1  0
  8  9  1  0
  9 10  2  0
 10 11  1  0
 11 12  2  0
 12 13  1  0
 13 14  1  0
 13 15  2  0
  8 16  1  0
 16 17  2  0
 16 18  2  0
 16 19  1  0
 19 20  2  0
 20 21  1  0
 21 22  2  0
 22 23  1  0
 23 24  1  0
 24 25  1  0
 25 26  2  0
 25 27  1  0
 27 28  1  0
 28 29  1  0
 29 30  1  0
 30 31  2  0
 30 32  1  0
 32 33  1  0
 33 34  1  0
 34 35  2  0
 35 36  1  0
 36 37  2  0
 37 38  1  0
 38 39  2  0
 23 40  2  0
 15  9  1  0
 40 19  1  0
 39 34  1  0
  1 41  1  0
  1 42  1  0
  1 43  1  0
  2 44  1  0
  3 45  1  0
  3 46  1  0
  3 47  1  0
  7 48  1  0
  7 49  1  0
 10 50  1  0
 11 51  1  0
 12 52  1  0
 15 53  1  0
 20 54  1  0
 21 55  1  0
 22 56  1  0
 24 57  1  0
 27 58  1  0
 27 59  1  0
 28 60  1  0
 28 61  1  0
 29 62  1  0
 33 63  1  0
 33 64  1  0
 35 65  1  0
 36 66  1  0
 37 67  1  0
 38 68  1  0
 39 69  1  0
 40 70  1  0
M  END
>  <docking_score>  (3) 
-6.4029999999999996

$$$$
