
     RDKit          3D

 57 62  0  0  0  0  0  0  0  0999 V2000
  141.9659  131.5570  136.3090 O   0  0  0  0  0  0  0  0  0  0  0  0
  141.4495  132.6301  136.6708 C   0  0  0  0  0  0  0  0  0  0  0  0
  141.7735  134.0172  136.4218 N   0  0  0  0  0  0  0  0  0  0  0  0
  142.8958  134.8376  136.2142 C   0  0  0  0  0  0  0  0  0  0  0  0
  143.2135  135.8338  137.1198 C   0  0  0  0  0  0  0  0  0  0  0  0
  144.3112  136.6386  136.9045 C   0  0  0  0  0  0  0  0  0  0  0  0
  145.0766  136.4316  135.7791 C   0  0  0  0  0  0  0  0  0  0  0  0
  144.7649  135.4310  134.8617 C   0  0  0  0  0  0  0  0  0  0  0  0
  145.7296  135.1670  133.4316 Cl  0  0  0  0  0  0  0  0  0  0  0  0
  143.6632  134.6224  135.0771 C   0  0  0  0  0  0  0  0  0  0  0  0
  140.3150  134.2261  136.4689 C   0  0  1  0  0  0  0  0  0  0  0  0
  139.7759  133.8687  135.1451 C   0  0  0  0  0  0  0  0  0  0  0  0
  138.4321  133.5257  135.0592 C   0  0  0  0  0  0  0  0  0  0  0  0
  137.8386  133.1896  133.8438 C   0  0  0  0  0  0  0  0  0  0  0  0
  138.5934  133.1978  132.7162 C   0  0  0  0  0  0  0  0  0  0  0  0
  139.9250  133.5381  132.8096 C   0  0  0  0  0  0  0  0  0  0  0  0
  140.4577  133.8566  134.0084 N   0  0  0  0  0  0  0  0  0  0  0  0
  140.3086  133.1488  137.4903 C   0  0  0  0  0  0  0  0  0  0  0  0
  139.1133  132.2778  137.6157 C   0  0  0  0  0  0  0  0  0  0  0  0
  138.6840  132.2271  139.0671 C   0  0  0  0  0  0  0  0  0  0  0  0
  139.7422  131.8269  139.9667 N   0  0  0  0  0  0  0  0  0  0  0  0
  139.3987  131.0593  141.0880 C   0  0  0  0  0  0  0  0  0  0  0  0
  140.1338  130.7295  142.1617 N   0  0  0  0  0  0  0  0  0  0  0  0
  139.4075  129.9505  143.0058 C   0  0  0  0  0  0  0  0  0  0  0  0
  139.6694  129.3407  144.2257 C   0  0  0  0  0  0  0  0  0  0  0  0
  138.7024  128.5829  144.8552 C   0  0  0  0  0  0  0  0  0  0  0  0
  138.9252  127.9714  146.0555 F   0  0  0  0  0  0  0  0  0  0  0  0
  137.4697  128.4214  144.2857 C   0  0  0  0  0  0  0  0  0  0  0  0
  136.4074  127.6026  144.9391 C   0  0  0  0  0  0  0  0  0  0  0  0
  135.4293  128.4984  145.3783 F   0  0  0  0  0  0  0  0  0  0  0  0
  136.9337  127.0004  146.0888 F   0  0  0  0  0  0  0  0  0  0  0  0
  135.8939  126.6393  144.1049 F   0  0  0  0  0  0  0  0  0  0  0  0
  137.2141  129.0314  143.0706 C   0  0  0  0  0  0  0  0  0  0  0  0
  138.1622  129.7927  142.4222 C   0  0  0  0  0  0  0  0  0  0  0  0
  138.1788  130.4741  141.2598 N   0  0  0  0  0  0  0  0  0  0  0  0
  141.0800  132.2658  139.6279 C   0  0  0  0  0  0  0  0  0  0  0  0
  140.8677  133.5694  138.8329 C   0  0  0  0  0  0  0  0  0  0  0  0
  142.6148  136.0026  138.0151 H   0  0  0  0  0  0  0  0  0  0  0  0
  144.5251  137.4039  137.6338 H   0  0  0  0  0  0  0  0  0  0  0  0
  145.9475  137.0557  135.5862 H   0  0  0  0  0  0  0  0  0  0  0  0
  143.3728  133.8361  134.4034 H   0  0  0  0  0  0  0  0  0  0  0  0
  140.0420  135.2437  136.8201 H   0  0  0  0  0  0  0  0  0  0  0  0
  137.7815  133.4918  135.9075 H   0  0  0  0  0  0  0  0  0  0  0  0
  136.7754  132.9250  133.8099 H   0  0  0  0  0  0  0  0  0  0  0  0
  138.1382  132.9421  131.7756 H   0  0  0  0  0  0  0  0  0  0  0  0
  140.5003  133.5372  131.8907 H   0  0  0  0  0  0  0  0  0  0  0  0
  138.2098  132.7225  137.0921 H   0  0  0  0  0  0  0  0  0  0  0  0
  139.2539  131.2527  137.2568 H   0  0  0  0  0  0  0  0  0  0  0  0
  138.2884  133.2412  139.3159 H   0  0  0  0  0  0  0  0  0  0  0  0
  137.8152  131.5428  139.1586 H   0  0  0  0  0  0  0  0  0  0  0  0
  140.6189  129.4441  144.7010 H   0  0  0  0  0  0  0  0  0  0  0  0
  136.2476  128.9033  142.6230 H   0  0  0  0  0  0  0  0  0  0  0  0
  137.3950  130.5615  140.5753 H   0  0  0  0  0  0  0  0  0  0  0  0
  141.5259  131.5577  138.8975 H   0  0  0  0  0  0  0  0  0  0  0  0
  141.7281  132.4197  140.4958 H   0  0  0  0  0  0  0  0  0  0  0  0
  140.2307  134.2706  139.3704 H   0  0  0  0  0  0  0  0  0  0  0  0
  141.8852  133.9570  138.6718 H   0  0  0  0  0  0  0  0  0  0  0  0
  1  2  2  0
  2  3  1  0
  3  4  1  0
  4  5  2  0
  5  6  1  0
  6  7  2  0
  7  8  1  0
  8  9  1  0
  8 10  2  0
  3 11  1  0
 11 12  1  0
 12 13  2  0
 13 14  1  0
 14 15  2  0
 15 16  1  0
 16 17  2  0
 11 18  1  0
 18 19  1  0
 19 20  1  0
 20 21  1  0
 21 22  1  0
 22 23  2  0
 23 24  1  0
 24 25  2  0
 25 26  1  0
 26 27  1  0
 26 28  2  0
 28 29  1  0
 29 30  1  0
 29 31  1  0
 29 32  1  0
 28 33  1  0
 33 34  2  0
 34 35  1  0
 21 36  1  0
 36 37  1  0
 18  2  1  0
 35 22  1  0
 10  4  1  0
 17 12  1  0
 37 18  1  0
 34 24  1  0
  5 38  1  0
  6 39  1  0
  7 40  1  0
 10 41  1  0
 11 42  1  1
 13 43  1  0
 14 44  1  0
 15 45  1  0
 16 46  1  0
 19 47  1  0
 19 48  1  0
 20 49  1  0
 20 50  1  0
 25 51  1  0
 33 52  1  0
 35 53  1  0
 36 54  1  0
 36 55  1  0
 37 56  1  0
 37 57  1  0
M  END
>  <docking_score>  (1) 
-10.657

$$$$

     RDKit          3D

 57 62  0  0  0  0  0  0  0  0999 V2000
  135.8563  131.2851  139.4503 O   0  0  0  0  0  0  0  0  0  0  0  0
  135.2691  131.1616  138.3598 C   0  0  0  0  0  0  0  0  0  0  0  0
  134.4593  132.0583  137.5654 N   0  0  0  0  0  0  0  0  0  0  0  0
  133.5431  133.1112  137.7326 C   0  0  0  0  0  0  0  0  0  0  0  0
  133.9797  134.3665  138.1165 C   0  0  0  0  0  0  0  0  0  0  0  0
  133.0737  135.3909  138.2856 C   0  0  0  0  0  0  0  0  0  0  0  0
  131.7380  135.1399  138.0667 C   0  0  0  0  0  0  0  0  0  0  0  0
  131.2888  133.8795  137.6797 C   0  0  0  0  0  0  0  0  0  0  0  0
  129.5963  133.5550  137.4048 Cl  0  0  0  0  0  0  0  0  0  0  0  0
  132.1976  132.8503  137.5096 C   0  0  0  0  0  0  0  0  0  0  0  0
  135.0536  131.3572  136.4129 C   0  0  1  0  0  0  0  0  0  0  0  0
  136.3774  131.9558  136.1680 C   0  0  0  0  0  0  0  0  0  0  0  0
  136.4988  132.8655  135.1247 C   0  0  0  0  0  0  0  0  0  0  0  0
  137.7109  133.4893  134.8347 C   0  0  0  0  0  0  0  0  0  0  0  0
  138.7996  133.2002  135.5914 C   0  0  0  0  0  0  0  0  0  0  0  0
  138.6714  132.2967  136.6234 C   0  0  0  0  0  0  0  0  0  0  0  0
  137.4774  131.7164  136.8678 N   0  0  0  0  0  0  0  0  0  0  0  0
  135.0309  130.1522  137.2797 C   0  0  0  0  0  0  0  0  0  0  0  0
  136.0659  129.1053  137.0904 C   0  0  0  0  0  0  0  0  0  0  0  0
  135.3919  127.7543  136.9713 C   0  0  0  0  0  0  0  0  0  0  0  0
  134.5110  127.4512  138.0764 N   0  0  0  0  0  0  0  0  0  0  0  0
  134.4178  126.1178  138.4981 C   0  0  0  0  0  0  0  0  0  0  0  0
  133.3701  125.4471  139.0027 N   0  0  0  0  0  0  0  0  0  0  0  0
  133.7285  124.1696  139.2964 C   0  0  0  0  0  0  0  0  0  0  0  0
  133.0599  123.0758  139.8304 C   0  0  0  0  0  0  0  0  0  0  0  0
  133.7152  121.8760  140.0225 C   0  0  0  0  0  0  0  0  0  0  0  0
  133.0882  120.7806  140.5430 F   0  0  0  0  0  0  0  0  0  0  0  0
  135.0350  121.7468  139.6890 C   0  0  0  0  0  0  0  0  0  0  0  0
  135.7711  120.4649  139.8918 C   0  0  0  0  0  0  0  0  0  0  0  0
  137.0417  120.6448  139.3393 F   0  0  0  0  0  0  0  0  0  0  0  0
  135.1544  119.4573  139.1398 F   0  0  0  0  0  0  0  0  0  0  0  0
  135.8262  120.0899  141.2124 F   0  0  0  0  0  0  0  0  0  0  0  0
  135.6961  122.8394  139.1572 C   0  0  0  0  0  0  0  0  0  0  0  0
  135.0647  124.0476  138.9555 C   0  0  0  0  0  0  0  0  0  0  0  0
  135.4623  125.2412  138.4728 N   0  0  0  0  0  0  0  0  0  0  0  0
  133.7889  128.5662  138.6529 C   0  0  0  0  0  0  0  0  0  0  0  0
  133.6484  129.5740  137.4949 C   0  0  0  0  0  0  0  0  0  0  0  0
  135.0358  134.5749  138.2889 H   0  0  0  0  0  0  0  0  0  0  0  0
  133.4539  136.3547  138.5856 H   0  0  0  0  0  0  0  0  0  0  0  0
  131.0030  135.9326  138.1956 H   0  0  0  0  0  0  0  0  0  0  0  0
  131.9097  131.8572  137.2142 H   0  0  0  0  0  0  0  0  0  0  0  0
  134.3810  131.3448  135.5293 H   0  0  0  0  0  0  0  0  0  0  0  0
  135.6849  133.1341  134.4849 H   0  0  0  0  0  0  0  0  0  0  0  0
  137.7730  134.2035  134.0054 H   0  0  0  0  0  0  0  0  0  0  0  0
  139.7363  133.6821  135.3728 H   0  0  0  0  0  0  0  0  0  0  0  0
  139.5589  132.0887  137.2103 H   0  0  0  0  0  0  0  0  0  0  0  0
  136.6030  129.2170  136.0969 H   0  0  0  0  0  0  0  0  0  0  0  0
  136.8155  129.0528  137.8873 H   0  0  0  0  0  0  0  0  0  0  0  0
  134.8491  127.7563  135.9955 H   0  0  0  0  0  0  0  0  0  0  0  0
  136.1736  126.9732  136.8705 H   0  0  0  0  0  0  0  0  0  0  0  0
  132.0302  123.1382  140.1023 H   0  0  0  0  0  0  0  0  0  0  0  0
  136.7320  122.7385  138.8970 H   0  0  0  0  0  0  0  0  0  0  0  0
  136.4151  125.4882  138.1239 H   0  0  0  0  0  0  0  0  0  0  0  0
  134.4352  129.0779  139.3974 H   0  0  0  0  0  0  0  0  0  0  0  0
  132.8170  128.2931  139.0747 H   0  0  0  0  0  0  0  0  0  0  0  0
  133.2264  129.1095  136.6048 H   0  0  0  0  0  0  0  0  0  0  0  0
  133.0068  130.3690  137.9044 H   0  0  0  0  0  0  0  0  0  0  0  0
  1  2  2  0
  2  3  1  0
  3  4  1  0
  4  5  2  0
  5  6  1  0
  6  7  2  0
  7  8  1  0
  8  9  1  0
  8 10  2  0
  3 11  1  0
 11 12  1  0
 12 13  2  0
 13 14  1  0
 14 15  2  0
 15 16  1  0
 16 17  2  0
 11 18  1  0
 18 19  1  0
 19 20  1  0
 20 21  1  0
 21 22  1  0
 22 23  2  0
 23 24  1  0
 24 25  2  0
 25 26  1  0
 26 27  1  0
 26 28  2  0
 28 29  1  0
 29 30  1  0
 29 31  1  0
 29 32  1  0
 28 33  1  0
 33 34  2  0
 34 35  1  0
 21 36  1  0
 36 37  1  0
 18  2  1  0
 35 22  1  0
 10  4  1  0
 17 12  1  0
 37 18  1  0
 34 24  1  0
  5 38  1  0
  6 39  1  0
  7 40  1  0
 10 41  1  0
 11 42  1  6
 13 43  1  0
 14 44  1  0
 15 45  1  0
 16 46  1  0
 19 47  1  0
 19 48  1  0
 20 49  1  0
 20 50  1  0
 25 51  1  0
 33 52  1  0
 35 53  1  0
 36 54  1  0
 36 55  1  0
 37 56  1  0
 37 57  1  0
M  END
>  <docking_score>  (2) 
-10.597

$$$$

     RDKit          3D

 57 62  0  0  0  0  0  0  0  0999 V2000
  130.8805  140.3271  143.4875 O   0  0  0  0  0  0  0  0  0  0  0  0
  129.9013  140.4714  142.7328 C   0  0  0  0  0  0  0  0  0  0  0  0
  128.5492  140.9379  142.9451 N   0  0  0  0  0  0  0  0  0  0  0  0
  127.5531  140.9289  143.9368 C   0  0  0  0  0  0  0  0  0  0  0  0
  127.4895  139.8986  144.8577 C   0  0  0  0  0  0  0  0  0  0  0  0
  126.5049  139.8937  145.8218 C   0  0  0  0  0  0  0  0  0  0  0  0
  125.5947  140.9262  145.8475 C   0  0  0  0  0  0  0  0  0  0  0  0
  125.6506  141.9680  144.9246 C   0  0  0  0  0  0  0  0  0  0  0  0
  124.4969  143.2771  144.9504 Cl  0  0  0  0  0  0  0  0  0  0  0  0
  126.6389  141.9739  143.9565 C   0  0  0  0  0  0  0  0  0  0  0  0
  128.6660  141.4812  141.5797 C   0  0  1  0  0  0  0  0  0  0  0  0
  129.3772  142.7679  141.6771 C   0  0  0  0  0  0  0  0  0  0  0  0
  129.6048  143.4775  140.5043 C   0  0  0  0  0  0  0  0  0  0  0  0
  130.2562  144.7096  140.5089 C   0  0  0  0  0  0  0  0  0  0  0  0
  130.6786  145.2284  141.6895 C   0  0  0  0  0  0  0  0  0  0  0  0
  130.4500  144.5185  142.8477 C   0  0  0  0  0  0  0  0  0  0  0  0
  129.8150  143.3285  142.7956 N   0  0  0  0  0  0  0  0  0  0  0  0
  129.5057  140.2893  141.3000 C   0  0  0  0  0  0  0  0  0  0  0  0
  130.5820  140.3852  140.2825 C   0  0  0  0  0  0  0  0  0  0  0  0
  130.4534  139.2305  139.3111 C   0  0  0  0  0  0  0  0  0  0  0  0
  130.4307  137.9366  139.9548 N   0  0  0  0  0  0  0  0  0  0  0  0
  131.0307  136.8589  139.2891 C   0  0  0  0  0  0  0  0  0  0  0  0
  132.3219  136.6438  138.9913 N   0  0  0  0  0  0  0  0  0  0  0  0
  132.4588  135.4715  138.3180 C   0  0  0  0  0  0  0  0  0  0  0  0
  133.5398  134.7854  137.7799 C   0  0  0  0  0  0  0  0  0  0  0  0
  133.3555  133.5832  137.1271 C   0  0  0  0  0  0  0  0  0  0  0  0
  134.3957  132.8817  136.5884 F   0  0  0  0  0  0  0  0  0  0  0  0
  132.1032  133.0488  137.0005 C   0  0  0  0  0  0  0  0  0  0  0  0
  131.8727  131.7549  136.2943 C   0  0  0  0  0  0  0  0  0  0  0  0
  130.5870  131.3349  136.6445 F   0  0  0  0  0  0  0  0  0  0  0  0
  132.7530  130.7914  136.8020 F   0  0  0  0  0  0  0  0  0  0  0  0
  132.0335  131.8590  134.9339 F   0  0  0  0  0  0  0  0  0  0  0  0
  131.0300  133.7361  137.5387 C   0  0  0  0  0  0  0  0  0  0  0  0
  131.1875  134.9376  138.1949 C   0  0  0  0  0  0  0  0  0  0  0  0
  130.3367  135.7955  138.7915 N   0  0  0  0  0  0  0  0  0  0  0  0
  129.7760  137.8670  141.2447 C   0  0  0  0  0  0  0  0  0  0  0  0
  128.7262  138.9950  141.2049 C   0  0  0  0  0  0  0  0  0  0  0  0
  128.2080  139.0788  144.8467 H   0  0  0  0  0  0  0  0  0  0  0  0
  126.4893  139.0728  146.5212 H   0  0  0  0  0  0  0  0  0  0  0  0
  124.8066  140.9435  146.5983 H   0  0  0  0  0  0  0  0  0  0  0  0
  126.7305  142.7497  143.2174 H   0  0  0  0  0  0  0  0  0  0  0  0
  127.6877  141.5319  141.0567 H   0  0  0  0  0  0  0  0  0  0  0  0
  129.3056  143.1251  139.5397 H   0  0  0  0  0  0  0  0  0  0  0  0
  130.4190  145.2449  139.5662 H   0  0  0  0  0  0  0  0  0  0  0  0
  131.1790  146.1807  141.6976 H   0  0  0  0  0  0  0  0  0  0  0  0
  130.7977  144.9608  143.7744 H   0  0  0  0  0  0  0  0  0  0  0  0
  130.4568  141.2982  139.6200 H   0  0  0  0  0  0  0  0  0  0  0  0
  131.5987  140.3876  140.6899 H   0  0  0  0  0  0  0  0  0  0  0  0
  129.5249  139.4165  138.7193 H   0  0  0  0  0  0  0  0  0  0  0  0
  131.2846  139.2865  138.5780 H   0  0  0  0  0  0  0  0  0  0  0  0
  134.5316  135.1705  137.8591 H   0  0  0  0  0  0  0  0  0  0  0  0
  130.0473  133.3177  137.4379 H   0  0  0  0  0  0  0  0  0  0  0  0
  129.3013  135.6903  138.8779 H   0  0  0  0  0  0  0  0  0  0  0  0
  130.4912  138.1730  142.0376 H   0  0  0  0  0  0  0  0  0  0  0  0
  129.3210  136.8951  141.4578 H   0  0  0  0  0  0  0  0  0  0  0  0
  128.0966  138.9291  140.3186 H   0  0  0  0  0  0  0  0  0  0  0  0
  128.1587  138.8698  142.1396 H   0  0  0  0  0  0  0  0  0  0  0  0
  1  2  2  0
  2  3  1  0
  3  4  1  0
  4  5  2  0
  5  6  1  0
  6  7  2  0
  7  8  1  0
  8  9  1  0
  8 10  2  0
  3 11  1  0
 11 12  1  0
 12 13  2  0
 13 14  1  0
 14 15  2  0
 15 16  1  0
 16 17  2  0
 11 18  1  0
 18 19  1  0
 19 20  1  0
 20 21  1  0
 21 22  1  0
 22 23  2  0
 23 24  1  0
 24 25  2  0
 25 26  1  0
 26 27  1  0
 26 28  2  0
 28 29  1  0
 29 30  1  0
 29 31  1  0
 29 32  1  0
 28 33  1  0
 33 34  2  0
 34 35  1  0
 21 36  1  0
 36 37  1  0
 18  2  1  0
 35 22  1  0
 10  4  1  0
 17 12  1  0
 37 18  1  0
 34 24  1  0
  5 38  1  0
  6 39  1  0
  7 40  1  0
 10 41  1  0
 11 42  1  6
 13 43  1  0
 14 44  1  0
 15 45  1  0
 16 46  1  0
 19 47  1  0
 19 48  1  0
 20 49  1  0
 20 50  1  0
 25 51  1  0
 33 52  1  0
 35 53  1  0
 36 54  1  0
 36 55  1  0
 37 56  1  0
 37 57  1  0
M  END
>  <docking_score>  (3) 
-10.422000000000001

$$$$
