
     RDKit          3D

 29 33  0  0  0  0  0  0  0  0999 V2000
  137.6421  121.2036  140.5686 C   0  0  0  0  0  0  0  0  0  0  0  0
  136.6767  120.9138  139.7048 C   0  0  0  0  0  0  0  0  0  0  0  0
  136.7811  119.7026  138.9499 N   0  0  0  0  0  0  0  0  0  0  0  0
  135.6165  118.8825  138.8412 C   0  0  2  0  0  0  0  0  0  0  0  0
  135.7742  117.4446  139.1337 C   0  0  0  0  0  0  0  0  0  0  0  0
  135.3601  117.9584  137.7366 C   0  0  2  0  0  0  0  0  0  0  0  0
  136.4075  117.7146  136.7172 C   0  0  0  0  0  0  0  0  0  0  0  0
  136.3181  118.2984  135.4658 C   0  0  0  0  0  0  0  0  0  0  0  0
  137.3240  118.0300  134.5636 C   0  0  0  0  0  0  0  0  0  0  0  0
  138.4037  117.2162  134.8442 C   0  0  0  0  0  0  0  0  0  0  0  0
  138.4640  116.6487  136.0995 C   0  0  0  0  0  0  0  0  0  0  0  0
  137.4662  116.9115  137.0039 C   0  0  0  0  0  0  0  0  0  0  0  0
  135.6181  121.8190  139.5965 N   0  0  0  0  0  0  0  0  0  0  0  0
  134.3345  121.7609  140.2061 C   0  0  0  0  0  0  0  0  0  0  0  0
  133.3913  122.8404  139.7409 C   0  0  2  0  0  0  0  0  0  0  0  0
  133.8966  124.2302  139.9883 C   0  0  1  0  0  0  0  0  0  0  0  0
  133.9013  125.0696  138.7532 C   0  0  0  0  0  0  0  0  0  0  0  0
  133.0568  126.0731  138.4566 N   0  0  0  0  0  0  0  0  0  0  0  0
  133.3703  126.5921  137.2582 C   0  0  0  0  0  0  0  0  0  0  0  0
  132.7541  127.6843  136.5157 C   0  0  0  0  0  0  0  0  0  0  0  0
  133.1091  127.9456  135.2164 C   0  0  0  0  0  0  0  0  0  0  0  0
  132.5254  128.9767  134.5239 C   0  0  0  0  0  0  0  0  0  0  0  0
  131.5738  129.7537  135.1459 C   0  0  0  0  0  0  0  0  0  0  0  0
  131.2399  129.4614  136.4600 C   0  0  0  0  0  0  0  0  0  0  0  0
  131.8263  128.4547  137.0983 N   0  0  0  0  0  0  0  0  0  0  0  0
  134.4422  125.8588  136.8420 N   0  0  0  0  0  0  0  0  0  0  0  0
  134.7451  124.9629  137.7350 O   0  0  0  0  0  0  0  0  0  0  0  0
  132.6512  124.5232  140.7845 C   0  0  0  0  0  0  0  0  0  0  0  0
  132.2024  123.0969  140.5911 C   0  0  0  0  0  0  0  0  0  0  0  0
  1  2  2  0
  2  3  1  0
  4  3  1  6
  4  5  1  0
  5  6  1  0
  6  7  1  6
  7  8  2  0
  8  9  1  0
  9 10  2  0
 10 11  1  0
 11 12  2  0
  2 13  1  0
 13 14  1  0
 15 14  1  1
 15 16  1  0
 16 17  1  6
 17 18  2  0
 18 19  1  0
 19 20  1  0
 20 21  2  0
 21 22  1  0
 22 23  2  0
 23 24  1  0
 24 25  2  0
 19 26  2  0
 26 27  1  0
 16 28  1  0
 28 29  1  0
  6  4  1  0
 12  7  1  0
 29 15  1  0
 27 17  1  0
 25 20  1  0
M  END
>  <docking_score>  (1) 
-8.2609999999999992

$$$$

     RDKit          3D

 29 33  0  0  0  0  0  0  0  0999 V2000
  122.7567  125.0581  139.4472 C   0  0  0  0  0  0  0  0  0  0  0  0
  122.0519  124.3503  140.3216 C   0  0  0  0  0  0  0  0  0  0  0  0
  120.9798  123.5386  139.8323 N   0  0  0  0  0  0  0  0  0  0  0  0
  119.9121  123.2324  140.7306 C   0  0  2  0  0  0  0  0  0  0  0  0
  118.6424  122.7703  140.1369 C   0  0  0  0  0  0  0  0  0  0  0  0
  118.7427  124.0857  140.9413 C   0  0  2  0  0  0  0  0  0  0  0  0
  118.5348  125.2801  140.0895 C   0  0  0  0  0  0  0  0  0  0  0  0
  119.2599  126.4371  140.3145 C   0  0  0  0  0  0  0  0  0  0  0  0
  119.0178  127.5122  139.4879 C   0  0  0  0  0  0  0  0  0  0  0  0
  118.0975  127.4915  138.4587 C   0  0  0  0  0  0  0  0  0  0  0  0
  117.3904  126.3245  138.2602 C   0  0  0  0  0  0  0  0  0  0  0  0
  117.6261  125.2490  139.0790 C   0  0  0  0  0  0  0  0  0  0  0  0
  122.4132  124.4480  141.6676 N   0  0  0  0  0  0  0  0  0  0  0  0
  122.1186  125.4874  142.5926 C   0  0  0  0  0  0  0  0  0  0  0  0
  123.2415  125.7821  143.5535 C   0  0  2  0  0  0  0  0  0  0  0  0
  124.1828  124.6320  143.7518 C   0  0  1  0  0  0  0  0  0  0  0  0
  125.6079  125.0057  143.5080 C   0  0  0  0  0  0  0  0  0  0  0  0
  126.0582  125.9973  142.7194 N   0  0  0  0  0  0  0  0  0  0  0  0
  127.4006  126.0283  142.7493 C   0  0  0  0  0  0  0  0  0  0  0  0
  128.3367  126.9136  142.0683 C   0  0  0  0  0  0  0  0  0  0  0  0
  127.8974  127.8488  141.1656 C   0  0  0  0  0  0  0  0  0  0  0  0
  128.7851  128.6781  140.5271 C   0  0  0  0  0  0  0  0  0  0  0  0
  130.1300  128.5653  140.8002 C   0  0  0  0  0  0  0  0  0  0  0  0
  130.5386  127.6086  141.7177 C   0  0  0  0  0  0  0  0  0  0  0  0
  129.6498  126.8235  142.3163 N   0  0  0  0  0  0  0  0  0  0  0  0
  127.7436  125.0116  143.5913 N   0  0  0  0  0  0  0  0  0  0  0  0
  126.6746  124.4161  144.0321 O   0  0  0  0  0  0  0  0  0  0  0  0
  123.9021  124.6791  145.2315 C   0  0  0  0  0  0  0  0  0  0  0  0
  122.8992  125.7804  144.9974 C   0  0  0  0  0  0  0  0  0  0  0  0
  1  2  2  0
  2  3  1  0
  4  3  1  6
  4  5  1  0
  5  6  1  0
  6  7  1  6
  7  8  2  0
  8  9  1  0
  9 10  2  0
 10 11  1  0
 11 12  2  0
  2 13  1  0
 13 14  1  0
 15 14  1  6
 15 16  1  0
 16 17  1  1
 17 18  2  0
 18 19  1  0
 19 20  1  0
 20 21  2  0
 21 22  1  0
 22 23  2  0
 23 24  1  0
 24 25  2  0
 19 26  2  0
 26 27  1  0
 16 28  1  0
 28 29  1  0
  6  4  1  0
 12  7  1  0
 29 15  1  0
 27 17  1  0
 25 20  1  0
M  END
>  <docking_score>  (2) 
-7.7930000000000001

$$$$

     RDKit          3D

 29 33  0  0  0  0  0  0  0  0999 V2000
  132.7094  122.8755  139.9230 C   0  0  0  0  0  0  0  0  0  0  0  0
  133.9989  122.6191  140.1065 C   0  0  0  0  0  0  0  0  0  0  0  0
  134.4295  121.2546  140.0915 N   0  0  0  0  0  0  0  0  0  0  0  0
  135.4768  120.8763  140.9863 C   0  0  2  0  0  0  0  0  0  0  0  0
  136.8420  121.3304  140.6577 C   0  0  0  0  0  0  0  0  0  0  0  0
  136.4633  119.8332  140.7056 C   0  0  2  0  0  0  0  0  0  0  0  0
  136.5109  119.2005  139.3666 C   0  0  0  0  0  0  0  0  0  0  0  0
  137.6202  119.3591  138.5546 C   0  0  0  0  0  0  0  0  0  0  0  0
  137.6003  118.7462  137.3211 C   0  0  0  0  0  0  0  0  0  0  0  0
  136.5398  117.9909  136.8611 C   0  0  0  0  0  0  0  0  0  0  0  0
  135.4488  117.8522  137.6930 C   0  0  0  0  0  0  0  0  0  0  0  0
  135.4612  118.4592  138.9234 C   0  0  0  0  0  0  0  0  0  0  0  0
  134.8499  123.7101  140.2998 N   0  0  0  0  0  0  0  0  0  0  0  0
  134.8029  124.9923  139.6861 C   0  0  0  0  0  0  0  0  0  0  0  0
  134.6243  126.1270  140.6617 C   0  0  2  0  0  0  0  0  0  0  0  0
  135.2080  125.8553  142.0158 C   0  0  1  0  0  0  0  0  0  0  0  0
  136.1528  126.9229  142.4603 C   0  0  0  0  0  0  0  0  0  0  0  0
  136.2150  128.1862  142.0039 N   0  0  0  0  0  0  0  0  0  0  0  0
  137.1927  128.8520  142.6401 C   0  0  0  0  0  0  0  0  0  0  0  0
  137.6400  130.2315  142.4953 C   0  0  0  0  0  0  0  0  0  0  0  0
  138.4289  130.6125  141.4394 C   0  0  0  0  0  0  0  0  0  0  0  0
  138.8474  131.9131  141.3104 C   0  0  0  0  0  0  0  0  0  0  0  0
  138.4678  132.8408  142.2545 C   0  0  0  0  0  0  0  0  0  0  0  0
  137.6706  132.4204  143.3088 C   0  0  0  0  0  0  0  0  0  0  0  0
  137.2847  131.1525  143.4003 N   0  0  0  0  0  0  0  0  0  0  0  0
  137.7199  127.9362  143.5023 N   0  0  0  0  0  0  0  0  0  0  0  0
  137.0960  126.8009  143.3853 O   0  0  0  0  0  0  0  0  0  0  0  0
  133.8543  126.1015  142.6302 C   0  0  0  0  0  0  0  0  0  0  0  0
  133.2727  126.2902  141.2520 C   0  0  0  0  0  0  0  0  0  0  0  0
  1  2  2  0
  2  3  1  0
  4  3  1  6
  4  5  1  0
  5  6  1  0
  6  7  1  6
  7  8  2  0
  8  9  1  0
  9 10  2  0
 10 11  1  0
 11 12  2  0
  2 13  1  0
 13 14  1  0
 15 14  1  6
 15 16  1  0
 16 17  1  1
 17 18  2  0
 18 19  1  0
 19 20  1  0
 20 21  2  0
 21 22  1  0
 22 23  2  0
 23 24  1  0
 24 25  2  0
 19 26  2  0
 26 27  1  0
 16 28  1  0
 28 29  1  0
  6  4  1  0
 12  7  1  0
 29 15  1  0
 27 17  1  0
 25 20  1  0
M  END
>  <docking_score>  (3) 
-7.6820000000000004

$$$$
