
     RDKit          3D

 21 22  0  0  0  0  0  0  0  0999 V2000
  125.4280  126.4138  141.8165 O   0  0  0  0  0  0  0  0  0  0  0  0
  125.3878  125.6348  142.8023 C   0  0  0  0  0  0  0  0  0  0  0  0
  126.6483  125.2390  143.3628 N   0  0  0  0  0  0  0  0  0  0  0  0
  127.8518  125.7286  142.7984 C   0  0  0  0  0  0  0  0  0  0  0  0
  128.7044  124.8822  142.1272 C   0  0  0  0  0  0  0  0  0  0  0  0
  129.8812  125.3219  141.5664 C   0  0  0  0  0  0  0  0  0  0  0  0
  130.8951  124.1421  140.7287 Cl  0  0  0  0  0  0  0  0  0  0  0  0
  130.2397  126.6362  141.6640 C   0  0  0  0  0  0  0  0  0  0  0  0
  129.4176  127.5157  142.3257 C   0  0  0  0  0  0  0  0  0  0  0  0
  129.7657  128.8355  142.4302 F   0  0  0  0  0  0  0  0  0  0  0  0
  128.2451  127.0463  142.8773 C   0  0  0  0  0  0  0  0  0  0  0  0
  124.1808  125.1501  143.3602 N   0  0  0  0  0  0  0  0  0  0  0  0
  124.1682  124.5661  144.6787 C   0  0  0  0  0  0  0  0  0  0  0  0
  123.7450  123.1200  144.5339 C   0  0  0  0  0  0  0  0  0  0  0  0
  122.7567  122.9224  143.4055 C   0  0  2  0  0  0  0  0  0  0  0  0
  121.9789  124.1866  143.1841 C   0  0  0  0  0  0  0  0  0  0  0  0
  122.9422  125.2236  142.6389 C   0  0  1  0  0  0  0  0  0  0  0  0
  122.2609  126.5693  142.7632 C   0  0  0  0  0  0  0  0  0  0  0  0
  122.0298  127.0511  141.3573 C   0  0  0  0  0  0  0  0  0  0  0  0
  122.3489  126.4334  140.3841 O   0  0  0  0  0  0  0  0  0  0  0  0
  121.6420  121.6255  143.8949 Cl  0  0  0  0  0  0  0  0  0  0  0  0
  1  2  2  0
  2  3  1  0
  3  4  1  0
  4  5  2  0
  5  6  1  0
  6  7  1  0
  6  8  2  0
  8  9  1  0
  9 10  1  0
  9 11  2  0
  2 12  1  0
 12 13  1  0
 13 14  1  0
 14 15  1  0
 15 16  1  0
 16 17  1  0
 17 18  1  1
 18 19  1  0
 19 20  2  0
 15 21  1  1
 11  4  1  0
 17 12  1  0
M  END
>  <docking_score>  (1) 
-6.3029999999999999

$$$$

     RDKit          3D

 21 22  0  0  0  0  0  0  0  0999 V2000
  138.5678  115.9161  138.0209 O   0  0  0  0  0  0  0  0  0  0  0  0
  138.6012  115.4781  136.8430 C   0  0  0  0  0  0  0  0  0  0  0  0
  139.2089  114.1923  136.6505 N   0  0  0  0  0  0  0  0  0  0  0  0
  139.7310  113.4893  137.7640 C   0  0  0  0  0  0  0  0  0  0  0  0
  139.3191  112.2047  138.0357 C   0  0  0  0  0  0  0  0  0  0  0  0
  139.8042  111.4915  139.1076 C   0  0  0  0  0  0  0  0  0  0  0  0
  139.2008  109.8495  139.3556 Cl  0  0  0  0  0  0  0  0  0  0  0  0
  140.7253  112.0524  139.9456 C   0  0  0  0  0  0  0  0  0  0  0  0
  141.1639  113.3330  139.7111 C   0  0  0  0  0  0  0  0  0  0  0  0
  142.0869  113.9062  140.5438 F   0  0  0  0  0  0  0  0  0  0  0  0
  140.6601  114.0228  138.6297 C   0  0  0  0  0  0  0  0  0  0  0  0
  138.0771  116.1870  135.7359 N   0  0  0  0  0  0  0  0  0  0  0  0
  138.1661  115.6351  134.4065 C   0  0  0  0  0  0  0  0  0  0  0  0
  139.0213  116.5710  133.5795 C   0  0  0  0  0  0  0  0  0  0  0  0
  138.8510  118.0169  133.9908 C   0  0  2  0  0  0  0  0  0  0  0  0
  137.4870  118.2194  134.5831 C   0  0  0  0  0  0  0  0  0  0  0  0
  137.4462  117.4657  135.8987 C   0  0  1  0  0  0  0  0  0  0  0  0
  135.9920  117.3635  136.3054 C   0  0  0  0  0  0  0  0  0  0  0  0
  135.8486  118.1918  137.5525 C   0  0  0  0  0  0  0  0  0  0  0  0
  135.0582  117.9549  138.4184 O   0  0  0  0  0  0  0  0  0  0  0  0
  139.0068  119.0098  132.5232 Cl  0  0  0  0  0  0  0  0  0  0  0  0
  1  2  2  0
  2  3  1  0
  3  4  1  0
  4  5  2  0
  5  6  1  0
  6  7  1  0
  6  8  2  0
  8  9  1  0
  9 10  1  0
  9 11  2  0
  2 12  1  0
 12 13  1  0
 13 14  1  0
 14 15  1  0
 15 16  1  0
 16 17  1  0
 17 18  1  6
 18 19  1  0
 19 20  2  0
 15 21  1  6
 11  4  1  0
 17 12  1  0
M  END
>  <docking_score>  (2) 
-6.2759999999999998

$$$$
