
     RDKit          3D

 11 11  0  0  0  0  0  0  0  0999 V2000
  138.8957  117.2491  133.0891 O   0  0  0  0  0  0  0  0  0  0  0  0
  137.7517  117.3892  133.5439 C   0  0  0  0  0  0  0  0  0  0  0  0
  137.4295  117.2379  134.9249 N   0  0  0  0  0  0  0  0  0  0  0  0
  136.5024  118.1735  135.4540 C   0  0  0  0  0  0  0  0  0  0  0  0
  136.1269  118.4059  136.7240 C   0  0  0  0  0  0  0  0  0  0  0  0
  136.6339  117.6925  137.8883 C   0  0  0  0  0  0  0  0  0  0  0  0
  135.9405  117.7758  139.0098 C   0  0  0  0  0  0  0  0  0  0  0  0
  134.8124  118.5212  138.9793 F   0  0  0  0  0  0  0  0  0  0  0  0
  138.1043  116.1566  135.5452 C   0  0  0  0  0  0  0  0  0  0  0  0
  138.3702  116.2941  136.9694 C   0  0  0  0  0  0  0  0  0  0  0  0
  137.8216  116.8939  137.9627 N   0  0  0  0  0  0  0  0  0  0  0  0
  1  2  2  0
  2  3  1  0
  3  4  1  0
  4  5  2  0
  5  6  1  0
  6  7  2  3
  7  8  1  0
  3  9  1  0
  9 10  1  0
 10 11  2  0
 11  6  1  0
M  END
>  <docking_score>  (1) 
-4.2320000000000002

$$$$

     RDKit          3D

 11 11  0  0  0  0  0  0  0  0999 V2000
  121.5726  123.3885  137.8403 O   0  0  0  0  0  0  0  0  0  0  0  0
  121.5563  123.1374  139.0535 C   0  0  0  0  0  0  0  0  0  0  0  0
  120.3606  123.0728  139.8282 N   0  0  0  0  0  0  0  0  0  0  0  0
  120.5333  123.0133  141.2358 C   0  0  0  0  0  0  0  0  0  0  0  0
  119.6413  122.7798  142.2145 C   0  0  0  0  0  0  0  0  0  0  0  0
  118.2225  122.5239  142.0072 C   0  0  0  0  0  0  0  0  0  0  0  0
  117.4162  122.6571  143.0453 C   0  0  0  0  0  0  0  0  0  0  0  0
  117.9820  123.0221  144.2183 F   0  0  0  0  0  0  0  0  0  0  0  0
  119.1803  123.0792  139.0432 C   0  0  0  0  0  0  0  0  0  0  0  0
  118.0269  122.3941  139.6073 C   0  0  0  0  0  0  0  0  0  0  0  0
  117.5841  122.1363  140.7841 N   0  0  0  0  0  0  0  0  0  0  0  0
  1  2  2  0
  2  3  1  0
  3  4  1  0
  4  5  2  0
  5  6  1  0
  6  7  2  3
  7  8  1  0
  3  9  1  0
  9 10  1  0
 10 11  2  0
 11  6  1  0
M  END
>  <docking_score>  (2) 
-2.9910000000000001

$$$$

     RDKit          3D

 11 11  0  0  0  0  0  0  0  0999 V2000
  117.4907  120.4944  145.9504 O   0  0  0  0  0  0  0  0  0  0  0  0
  118.4112  121.3231  145.9162 C   0  0  0  0  0  0  0  0  0  0  0  0
  118.7055  122.1262  144.7751 N   0  0  0  0  0  0  0  0  0  0  0  0
  117.7903  122.0312  143.6941 C   0  0  0  0  0  0  0  0  0  0  0  0
  117.8676  122.5137  142.4415 C   0  0  0  0  0  0  0  0  0  0  0  0
  118.9847  123.2829  141.9106 C   0  0  0  0  0  0  0  0  0  0  0  0
  118.7819  123.9778  140.8054 C   0  0  0  0  0  0  0  0  0  0  0  0
  117.5462  123.9144  140.2593 F   0  0  0  0  0  0  0  0  0  0  0  0
  119.8859  122.8977  144.9190 C   0  0  0  0  0  0  0  0  0  0  0  0
  120.6066  123.2086  143.6934 C   0  0  0  0  0  0  0  0  0  0  0  0
  120.3063  123.3768  142.4569 N   0  0  0  0  0  0  0  0  0  0  0  0
  1  2  2  0
  2  3  1  0
  3  4  1  0
  4  5  2  0
  5  6  1  0
  6  7  2  3
  7  8  1  0
  3  9  1  0
  9 10  1  0
 10 11  2  0
 11  6  1  0
M  END
>  <docking_score>  (3) 
-2.2749999999999999

$$$$
