
     RDKit          3D

 11 11  0  0  0  0  0  0  0  0999 V2000
  126.6309  124.5792  144.2921 O   0  0  0  0  0  0  0  0  0  0  0  0
  125.4132  124.2712  144.3114 C   0  0  0  0  0  0  0  0  0  0  0  0
  124.4599  125.0138  143.5752 N   0  0  0  0  0  0  0  0  0  0  0  0
  124.8846  125.7474  142.4361 C   0  0  0  0  0  0  0  0  0  0  0  0
  123.9816  126.4368  141.7580 C   0  0  0  0  0  0  0  0  0  0  0  0
  122.5844  126.4469  142.1652 C   0  0  0  0  0  0  0  0  0  0  0  0
  121.6526  127.1323  141.5013 C   0  0  0  0  0  0  0  0  0  0  0  0
  122.0707  127.9099  140.3036 C   0  0  0  0  0  0  0  0  0  0  0  0
  121.0651  127.9925  139.3590 F   0  0  0  0  0  0  0  0  0  0  0  0
  123.0977  125.0201  143.9770 C   0  0  0  0  0  0  0  0  0  0  0  0
  122.2363  125.6926  143.3098 N   0  0  0  0  0  0  0  0  0  0  0  0
  1  2  2  0
  2  3  1  0
  3  4  1  0
  4  5  2  0
  5  6  1  0
  6  7  2  3
  7  8  1  0
  8  9  1  0
  3 10  1  0
 10 11  2  0
 11  6  1  0
M  END
>  <docking_score>  (1) 
-4.4740000000000002

$$$$

     RDKit          3D

 11 11  0  0  0  0  0  0  0  0999 V2000
  131.9785  123.4608  139.8710 O   0  0  0  0  0  0  0  0  0  0  0  0
  133.2204  123.6216  139.7710 C   0  0  0  0  0  0  0  0  0  0  0  0
  134.1143  122.5398  139.9524 N   0  0  0  0  0  0  0  0  0  0  0  0
  135.5124  122.7866  139.9286 C   0  0  0  0  0  0  0  0  0  0  0  0
  136.3355  121.7650  140.0997 C   0  0  0  0  0  0  0  0  0  0  0  0
  135.8259  120.4177  140.3077 C   0  0  0  0  0  0  0  0  0  0  0  0
  136.6314  119.3693  140.4829 C   0  0  0  0  0  0  0  0  0  0  0  0
  138.1013  119.6000  140.4624 C   0  0  0  0  0  0  0  0  0  0  0  0
  138.7011  119.0398  139.3502 F   0  0  0  0  0  0  0  0  0  0  0  0
  133.6116  121.2271  140.1551 C   0  0  0  0  0  0  0  0  0  0  0  0
  134.4217  120.2492  140.3191 N   0  0  0  0  0  0  0  0  0  0  0  0
  1  2  2  0
  2  3  1  0
  3  4  1  0
  4  5  2  0
  5  6  1  0
  6  7  2  3
  7  8  1  0
  8  9  1  0
  3 10  1  0
 10 11  2  0
 11  6  1  0
M  END
>  <docking_score>  (2) 
-4.46

$$$$

     RDKit          3D

 11 11  0  0  0  0  0  0  0  0999 V2000
  142.5000  137.2689  139.8443 O   0  0  0  0  0  0  0  0  0  0  0  0
  143.5385  137.6470  139.2473 C   0  0  0  0  0  0  0  0  0  0  0  0
  144.7264  137.9367  139.9595 N   0  0  0  0  0  0  0  0  0  0  0  0
  145.1911  137.0140  140.9336 C   0  0  0  0  0  0  0  0  0  0  0  0
  146.3032  137.2988  141.5912 C   0  0  0  0  0  0  0  0  0  0  0  0
  147.0374  138.5273  141.3270 C   0  0  0  0  0  0  0  0  0  0  0  0
  148.1607  138.8406  141.9741 C   0  0  0  0  0  0  0  0  0  0  0  0
  148.6699  137.8909  143.0002 C   0  0  0  0  0  0  0  0  0  0  0  0
  148.9363  138.5173  144.2032 F   0  0  0  0  0  0  0  0  0  0  0  0
  145.4389  139.1370  139.6976 C   0  0  0  0  0  0  0  0  0  0  0  0
  146.5136  139.3978  140.3429 N   0  0  0  0  0  0  0  0  0  0  0  0
  1  2  2  0
  2  3  1  0
  3  4  1  0
  4  5  2  0
  5  6  1  0
  6  7  2  3
  7  8  1  0
  8  9  1  0
  3 10  1  0
 10 11  2  0
 11  6  1  0
M  END
>  <docking_score>  (3) 
-4.1669999999999998

$$$$
