
     RDKit          3D

 29 33  0  0  0  0  0  0  0  0999 V2000
  133.5376  133.0772  135.8672 O   0  0  0  0  0  0  0  0  0  0  0  0
  132.7353  132.2691  136.4374 C   0  0  0  0  0  0  0  0  0  0  0  0
  131.5919  132.8899  137.0444 N   0  0  0  0  0  0  0  0  0  0  0  0
  131.3935  134.3115  136.9972 C   0  0  0  0  0  0  0  0  0  0  0  0
  131.9250  134.9081  138.2884 C   0  0  2  0  0  0  0  0  0  0  0  0
  131.5198  134.4030  139.6004 C   0  0  0  0  0  0  0  0  0  0  0  0
  130.8818  135.6442  139.0833 C   0  0  2  0  0  0  0  0  0  0  0  0
  129.4692  135.5419  138.7141 C   0  0  0  0  0  0  0  0  0  0  0  0
  128.5915  136.5048  138.7806 C   0  0  0  0  0  0  0  0  0  0  0  0
  129.0090  137.8124  139.2581 C   0  0  0  0  0  0  0  0  0  0  0  0
  130.2628  137.9841  139.6091 C   0  0  0  0  0  0  0  0  0  0  0  0
  131.3248  136.9813  139.5754 C   0  0  0  0  0  0  0  0  0  0  0  0
  132.9533  130.8804  136.4692 N   0  0  0  0  0  0  0  0  0  0  0  0
  131.8423  129.9773  136.4031 C   0  0  0  0  0  0  0  0  0  0  0  0
  132.0371  129.0987  135.1828 C   0  0  0  0  0  0  0  0  0  0  0  0
  133.4101  128.5228  135.0839 C   0  0  0  0  0  0  0  0  0  0  0  0
  133.5025  127.3455  135.9859 C   0  0  0  0  0  0  0  0  0  0  0  0
  132.7493  127.1028  137.0910 N   0  0  0  0  0  0  0  0  0  0  0  0
  133.1331  125.9378  137.6356 C   0  0  0  0  0  0  0  0  0  0  0  0
  132.5843  125.2899  138.8457 C   0  0  0  0  0  0  0  0  0  0  0  0
  132.8355  123.9756  139.1076 C   0  0  0  0  0  0  0  0  0  0  0  0
  132.3113  123.3959  140.2436 C   0  0  0  0  0  0  0  0  0  0  0  0
  131.5389  124.1673  141.0942 C   0  0  0  0  0  0  0  0  0  0  0  0
  131.3088  125.4930  140.7927 C   0  0  0  0  0  0  0  0  0  0  0  0
  131.8332  126.0121  139.6870 N   0  0  0  0  0  0  0  0  0  0  0  0
  134.1237  125.4761  136.8532 N   0  0  0  0  0  0  0  0  0  0  0  0
  134.3267  126.3207  135.8856 O   0  0  0  0  0  0  0  0  0  0  0  0
  134.5128  129.5028  135.3114 C   0  0  0  0  0  0  0  0  0  0  0  0
  134.2827  130.3535  136.5675 C   0  0  0  0  0  0  0  0  0  0  0  0
  1  2  2  0
  2  3  1  0
  3  4  1  0
  5  4  1  6
  5  6  1  0
  7  6  1  1
  7  8  1  0
  8  9  2  0
  9 10  1  0
 10 11  2  0
 11 12  1  0
  2 13  1  0
 13 14  1  0
 14 15  1  0
 15 16  1  0
 16 17  1  0
 17 18  2  0
 18 19  1  0
 19 20  1  0
 20 21  2  0
 21 22  1  0
 22 23  2  0
 23 24  1  0
 24 25  2  0
 19 26  2  0
 26 27  1  0
 16 28  1  0
 28 29  1  0
  7  5  1  0
 12  7  1  0
 29 13  1  0
 27 17  1  0
 25 20  1  0
M  END
>  <docking_score>  (1) 
-7.9320000000000004

$$$$

     RDKit          3D

 29 33  0  0  0  0  0  0  0  0999 V2000
  130.0546  139.1265  142.2395 O   0  0  0  0  0  0  0  0  0  0  0  0
  130.3768  138.7253  141.0746 C   0  0  0  0  0  0  0  0  0  0  0  0
  130.8175  139.7626  140.1852 N   0  0  0  0  0  0  0  0  0  0  0  0
  130.8805  141.1354  140.6024 C   0  0  0  0  0  0  0  0  0  0  0  0
  129.7285  141.8820  139.9534 C   0  0  2  0  0  0  0  0  0  0  0  0
  129.5591  143.3276  140.1028 C   0  0  0  0  0  0  0  0  0  0  0  0
  128.7296  142.4195  140.9409 C   0  0  2  0  0  0  0  0  0  0  0  0
  129.0307  142.4034  142.3732 C   0  0  0  0  0  0  0  0  0  0  0  0
  128.1745  142.1741  143.3303 C   0  0  0  0  0  0  0  0  0  0  0  0
  126.7871  141.9061  142.9908 C   0  0  0  0  0  0  0  0  0  0  0  0
  126.4376  141.9031  141.7249 C   0  0  0  0  0  0  0  0  0  0  0  0
  127.3087  142.1458  140.5773 C   0  0  0  0  0  0  0  0  0  0  0  0
  130.3058  137.3743  140.6916 N   0  0  0  0  0  0  0  0  0  0  0  0
  130.6051  136.3421  141.6400 C   0  0  0  0  0  0  0  0  0  0  0  0
  129.3748  135.4650  141.7671 C   0  0  0  0  0  0  0  0  0  0  0  0
  128.8030  135.0570  140.4506 C   0  0  0  0  0  0  0  0  0  0  0  0
  129.5968  133.9212  139.9140 C   0  0  0  0  0  0  0  0  0  0  0  0
  129.6120  133.4696  138.6320 N   0  0  0  0  0  0  0  0  0  0  0  0
  130.4537  132.4279  138.5444 C   0  0  0  0  0  0  0  0  0  0  0  0
  130.7752  131.6341  137.3396 C   0  0  0  0  0  0  0  0  0  0  0  0
  130.3700  130.3367  137.2309 C   0  0  0  0  0  0  0  0  0  0  0  0
  130.6835  129.6188  136.0962 C   0  0  0  0  0  0  0  0  0  0  0  0
  131.4057  130.2368  135.0904 C   0  0  0  0  0  0  0  0  0  0  0  0
  131.7964  131.5507  135.2398 C   0  0  0  0  0  0  0  0  0  0  0  0
  131.4731  132.2062  136.3501 N   0  0  0  0  0  0  0  0  0  0  0  0
  130.9484  132.2513  139.7816 N   0  0  0  0  0  0  0  0  0  0  0  0
  130.4306  133.1420  140.5750 O   0  0  0  0  0  0  0  0  0  0  0  0
  128.6597  136.1682  139.4642 C   0  0  0  0  0  0  0  0  0  0  0  0
  129.9351  137.0144  139.3546 C   0  0  0  0  0  0  0  0  0  0  0  0
  1  2  2  0
  2  3  1  0
  3  4  1  0
  5  4  1  1
  5  6  1  0
  7  6  1  6
  7  8  1  0
  8  9  2  0
  9 10  1  0
 10 11  2  0
 11 12  1  0
  2 13  1  0
 13 14  1  0
 14 15  1  0
 15 16  1  0
 16 17  1  0
 17 18  2  0
 18 19  1  0
 19 20  1  0
 20 21  2  0
 21 22  1  0
 22 23  2  0
 23 24  1  0
 24 25  2  0
 19 26  2  0
 26 27  1  0
 16 28  1  0
 28 29  1  0
  7  5  1  0
 12  7  1  0
 29 13  1  0
 27 17  1  0
 25 20  1  0
M  END
>  <docking_score>  (2) 
-7.875

$$$$

     RDKit          3D

 29 33  0  0  0  0  0  0  0  0999 V2000
  132.1176  129.6082  140.2617 O   0  0  0  0  0  0  0  0  0  0  0  0
  132.3342  128.7770  139.3215 C   0  0  0  0  0  0  0  0  0  0  0  0
  131.8747  129.2022  138.0295 N   0  0  0  0  0  0  0  0  0  0  0  0
  131.2256  130.4693  137.8409 C   0  0  0  0  0  0  0  0  0  0  0  0
  131.5197  130.9478  136.4302 C   0  0  2  0  0  0  0  0  0  0  0  0
  132.7933  130.6689  135.7664 C   0  0  0  0  0  0  0  0  0  0  0  0
  132.5788  132.0137  136.3667 C   0  0  2  0  0  0  0  0  0  0  0  0
  133.3759  132.3290  137.5531 C   0  0  0  0  0  0  0  0  0  0  0  0
  133.7849  133.5171  137.9039 C   0  0  0  0  0  0  0  0  0  0  0  0
  133.4420  134.6587  137.0724 C   0  0  0  0  0  0  0  0  0  0  0  0
  132.7278  134.4571  135.9890 C   0  0  0  0  0  0  0  0  0  0  0  0
  132.2193  133.1764  135.5034 C   0  0  0  0  0  0  0  0  0  0  0  0
  132.9723  127.5421  139.5335 N   0  0  0  0  0  0  0  0  0  0  0  0
  133.5836  127.2572  140.7982 C   0  0  0  0  0  0  0  0  0  0  0  0
  132.9159  126.0180  141.3618 C   0  0  0  0  0  0  0  0  0  0  0  0
  132.8081  124.9052  140.3736 C   0  0  0  0  0  0  0  0  0  0  0  0
  134.1161  124.2042  140.2959 C   0  0  0  0  0  0  0  0  0  0  0  0
  134.3191  122.8741  140.1032 N   0  0  0  0  0  0  0  0  0  0  0  0
  135.6385  122.6291  140.0931 C   0  0  0  0  0  0  0  0  0  0  0  0
  136.3065  121.3228  139.9132 C   0  0  0  0  0  0  0  0  0  0  0  0
  137.4538  121.0276  140.5881 C   0  0  0  0  0  0  0  0  0  0  0  0
  138.0566  119.8016  140.4018 C   0  0  0  0  0  0  0  0  0  0  0  0
  137.4784  118.8963  139.5293 C   0  0  0  0  0  0  0  0  0  0  0  0
  136.3176  119.2341  138.8661 C   0  0  0  0  0  0  0  0  0  0  0  0
  135.7695  120.4270  139.0750 N   0  0  0  0  0  0  0  0  0  0  0  0
  136.2338  123.8195  140.2810 N   0  0  0  0  0  0  0  0  0  0  0  0
  135.3186  124.7359  140.3984 O   0  0  0  0  0  0  0  0  0  0  0  0
  132.3000  125.3137  139.0308 C   0  0  0  0  0  0  0  0  0  0  0  0
  133.0190  126.5579  138.4925 C   0  0  0  0  0  0  0  0  0  0  0  0
  1  2  2  0
  2  3  1  0
  3  4  1  0
  5  4  1  1
  5  6  1  0
  7  6  1  6
  7  8  1  0
  8  9  2  0
  9 10  1  0
 10 11  2  0
 11 12  1  0
  2 13  1  0
 13 14  1  0
 14 15  1  0
 15 16  1  0
 16 17  1  0
 17 18  2  0
 18 19  1  0
 19 20  1  0
 20 21  2  0
 21 22  1  0
 22 23  2  0
 23 24  1  0
 24 25  2  0
 19 26  2  0
 26 27  1  0
 16 28  1  0
 28 29  1  0
  7  5  1  0
 12  7  1  0
 29 13  1  0
 27 17  1  0
 25 20  1  0
M  END
>  <docking_score>  (3) 
-7.694

$$$$
