
     RDKit          3D

 25 27  0  0  0  0  0  0  0  0999 V2000
  138.0252  133.5999  133.3788 O   0  0  0  0  0  0  0  0  0  0  0  0
  138.4071  133.2843  134.5319 C   0  0  0  0  0  0  0  0  0  0  0  0
  139.7867  133.5928  134.7858 N   0  0  0  0  0  0  0  0  0  0  0  0
  140.7214  133.0064  135.7182 C   0  0  0  0  0  0  0  0  0  0  0  0
  141.9111  132.8266  135.0490 C   0  0  0  0  0  0  0  0  0  0  0  0
  142.9864  132.2677  135.7122 C   0  0  0  0  0  0  0  0  0  0  0  0
  144.4763  132.0534  134.8425 Cl  0  0  0  0  0  0  0  0  0  0  0  0
  142.8519  131.8986  137.0322 C   0  0  0  0  0  0  0  0  0  0  0  0
  141.6927  132.0612  137.7238 C   0  0  0  0  0  0  0  0  0  0  0  0
  141.5295  131.7023  139.0179 F   0  0  0  0  0  0  0  0  0  0  0  0
  140.6069  132.6247  137.0600 C   0  0  0  0  0  0  0  0  0  0  0  0
  137.3869  132.6847  135.3505 N   0  0  0  0  0  0  0  0  0  0  0  0
  137.4633  132.0397  136.6389 C   0  0  0  0  0  0  0  0  0  0  0  0
  136.3075  131.1224  136.9042 C   0  0  0  0  0  0  0  0  0  0  0  0
  136.7541  130.2387  138.0190 C   0  0  0  0  0  0  0  0  0  0  0  0
  137.7487  131.0936  138.7420 C   0  0  0  0  0  0  0  0  0  0  0  0
  138.2735  132.0247  137.6834 C   0  0  0  0  0  0  0  0  0  0  0  0
  139.5128  132.7012  138.0092 C   0  0  1  0  0  0  0  0  0  0  0  0
  139.8160  132.9028  139.4054 C   0  0  0  0  0  0  0  0  0  0  0  0
  139.9842  134.0478  140.0349 C   0  0  0  0  0  0  0  0  0  0  0  0
  140.2929  134.0992  141.4795 C   0  0  0  0  0  0  0  0  0  0  0  0
  141.6676  133.8808  141.8164 N   0  0  0  0  0  0  0  0  0  0  0  0
  142.6532  134.8764  142.0090 C   0  0  0  0  0  0  0  0  0  0  0  0
  143.3616  135.3835  141.0089 C   0  0  0  0  0  0  0  0  0  0  0  0
  144.3765  136.4255  141.2962 C   0  0  0  0  0  0  0  0  0  0  0  0
  1  2  2  0
  2  3  1  0
  3  4  1  0
  4  5  2  0
  5  6  1  0
  6  7  1  0
  6  8  2  0
  8  9  1  0
  9 10  1  0
  9 11  2  0
  2 12  1  0
 12 13  1  0
 13 14  1  0
 14 15  1  0
 15 16  1  0
 16 17  1  0
 17 18  1  0
 18 19  1  1
 19 20  2  3
 20 21  1  0
 21 22  1  0
 22 23  1  0
 23 24  2  3
 24 25  1  0
 11  4  1  0
 18 11  1  0
 13 17  2  0
M  END
>  <docking_score>  (1) 
-7.2389999999999999

$$$$

     RDKit          3D

 25 27  0  0  0  0  0  0  0  0999 V2000
  117.7947  121.9030  138.5878 O   0  0  0  0  0  0  0  0  0  0  0  0
  118.5229  122.7323  139.1852 C   0  0  0  0  0  0  0  0  0  0  0  0
  119.2903  122.1586  140.2551 N   0  0  0  0  0  0  0  0  0  0  0  0
  119.8430  122.7678  141.4427 C   0  0  0  0  0  0  0  0  0  0  0  0
  119.5851  121.9207  142.4970 C   0  0  0  0  0  0  0  0  0  0  0  0
  120.0028  122.2691  143.7669 C   0  0  0  0  0  0  0  0  0  0  0  0
  119.6641  121.1799  145.0788 Cl  0  0  0  0  0  0  0  0  0  0  0  0
  120.6705  123.4583  143.9589 C   0  0  0  0  0  0  0  0  0  0  0  0
  120.9420  124.3185  142.9417 C   0  0  0  0  0  0  0  0  0  0  0  0
  121.5896  125.4954  143.1014 F   0  0  0  0  0  0  0  0  0  0  0  0
  120.5238  123.9713  141.6604 C   0  0  0  0  0  0  0  0  0  0  0  0
  118.4354  124.0742  138.6733 N   0  0  0  0  0  0  0  0  0  0  0  0
  118.9630  125.3180  139.1801 C   0  0  0  0  0  0  0  0  0  0  0  0
  118.2387  126.5198  138.6522 C   0  0  0  0  0  0  0  0  0  0  0  0
  118.5935  127.6321  139.5797 C   0  0  0  0  0  0  0  0  0  0  0  0
  119.9378  127.2189  140.0943 C   0  0  0  0  0  0  0  0  0  0  0  0
  119.9270  125.7181  139.9913 C   0  0  0  0  0  0  0  0  0  0  0  0
  120.9424  125.0343  140.7668 C   0  0  1  0  0  0  0  0  0  0  0  0
  122.1536  125.7588  141.0667 C   0  0  0  0  0  0  0  0  0  0  0  0
  123.2434  125.8433  140.3315 C   0  0  0  0  0  0  0  0  0  0  0  0
  124.4154  126.6291  140.7715 C   0  0  0  0  0  0  0  0  0  0  0  0
  124.5660  126.7554  142.1901 N   0  0  0  0  0  0  0  0  0  0  0  0
  125.2712  125.8735  143.0413 C   0  0  0  0  0  0  0  0  0  0  0  0
  124.7834  124.6980  143.4147 C   0  0  0  0  0  0  0  0  0  0  0  0
  125.5877  123.8319  144.3098 C   0  0  0  0  0  0  0  0  0  0  0  0
  1  2  2  0
  2  3  1  0
  3  4  1  0
  4  5  2  0
  5  6  1  0
  6  7  1  0
  6  8  2  0
  8  9  1  0
  9 10  1  0
  9 11  2  0
  2 12  1  0
 12 13  1  0
 13 14  1  0
 14 15  1  0
 15 16  1  0
 16 17  1  0
 17 18  1  0
 18 19  1  1
 19 20  2  3
 20 21  1  0
 21 22  1  0
 22 23  1  0
 23 24  2  3
 24 25  1  0
 11  4  1  0
 18 11  1  0
 13 17  2  0
M  END
>  <docking_score>  (2) 
-6.9509999999999996

$$$$

     RDKit          3D

 25 27  0  0  0  0  0  0  0  0999 V2000
  143.9527  137.5614  139.9965 O   0  0  0  0  0  0  0  0  0  0  0  0
  143.3581  136.6982  139.3064 C   0  0  0  0  0  0  0  0  0  0  0  0
  142.3864  135.9406  140.0445 N   0  0  0  0  0  0  0  0  0  0  0  0
  141.8588  134.6159  139.8128 C   0  0  0  0  0  0  0  0  0  0  0  0
  141.8295  133.9672  141.0268 C   0  0  0  0  0  0  0  0  0  0  0  0
  141.3706  132.6658  141.0913 C   0  0  0  0  0  0  0  0  0  0  0  0
  141.3441  131.8719  142.6377 Cl  0  0  0  0  0  0  0  0  0  0  0  0
  140.9499  132.0370  139.9405 C   0  0  0  0  0  0  0  0  0  0  0  0
  140.9651  132.6467  138.7253 C   0  0  0  0  0  0  0  0  0  0  0  0
  140.5645  132.0523  137.5780 F   0  0  0  0  0  0  0  0  0  0  0  0
  141.4258  133.9581  138.6555 C   0  0  0  0  0  0  0  0  0  0  0  0
  143.7733  136.6519  137.9294 N   0  0  0  0  0  0  0  0  0  0  0  0
  143.4693  135.7102  136.8792 C   0  0  0  0  0  0  0  0  0  0  0  0
  144.4766  135.7259  135.7688 C   0  0  0  0  0  0  0  0  0  0  0  0
  144.2719  134.4450  135.0336 C   0  0  0  0  0  0  0  0  0  0  0  0
  142.8269  134.1440  135.2874 C   0  0  0  0  0  0  0  0  0  0  0  0
  142.5348  134.8178  136.6003 C   0  0  0  0  0  0  0  0  0  0  0  0
  141.3280  134.3770  137.2704 C   0  0  1  0  0  0  0  0  0  0  0  0
  140.2708  133.8338  136.4523 C   0  0  0  0  0  0  0  0  0  0  0  0
  139.7216  134.3747  135.3840 C   0  0  0  0  0  0  0  0  0  0  0  0
  138.6389  133.6953  134.6417 C   0  0  0  0  0  0  0  0  0  0  0  0
  137.7860  132.8626  135.4356 N   0  0  0  0  0  0  0  0  0  0  0  0
  136.3775  132.9487  135.5272 C   0  0  0  0  0  0  0  0  0  0  0  0
  135.6272  131.9457  135.9632 C   0  0  0  0  0  0  0  0  0  0  0  0
  134.1560  132.1177  136.0291 C   0  0  0  0  0  0  0  0  0  0  0  0
  1  2  2  0
  2  3  1  0
  3  4  1  0
  4  5  2  0
  5  6  1  0
  6  7  1  0
  6  8  2  0
  8  9  1  0
  9 10  1  0
  9 11  2  0
  2 12  1  0
 12 13  1  0
 13 14  1  0
 14 15  1  0
 15 16  1  0
 16 17  1  0
 17 18  1  0
 18 19  1  6
 19 20  2  3
 20 21  1  0
 21 22  1  0
 22 23  1  0
 23 24  2  3
 24 25  1  0
 11  4  1  0
 18 11  1  0
 13 17  2  0
M  END
>  <docking_score>  (3) 
-6.7960000000000003

$$$$
