
     RDKit          3D

 25 27  0  0  0  0  0  0  0  0999 V2000
  140.0429  115.7862  133.6830 O   0  0  0  0  0  0  0  0  0  0  0  0
  139.0637  115.1936  134.2362 C   0  0  0  0  0  0  0  0  0  0  0  0
  138.8849  113.8218  133.8800 N   0  0  0  0  0  0  0  0  0  0  0  0
  139.7521  113.1733  132.9652 C   0  0  0  0  0  0  0  0  0  0  0  0
  140.5706  112.1486  133.3395 C   0  0  0  0  0  0  0  0  0  0  0  0
  141.3919  111.5508  132.4238 C   0  0  0  0  0  0  0  0  0  0  0  0
  142.4692  110.2183  132.8678 Cl  0  0  0  0  0  0  0  0  0  0  0  0
  141.4017  111.9718  131.1291 C   0  0  0  0  0  0  0  0  0  0  0  0
  140.5756  113.0123  130.7325 C   0  0  0  0  0  0  0  0  0  0  0  0
  140.6114  113.4039  129.4404 F   0  0  0  0  0  0  0  0  0  0  0  0
  139.7520  113.6089  131.6590 C   0  0  0  0  0  0  0  0  0  0  0  0
  138.2024  115.8420  135.1463 N   0  0  0  0  0  0  0  0  0  0  0  0
  138.7492  115.8777  136.4713 C   0  0  0  0  0  0  0  0  0  0  0  0
  137.7739  116.3125  137.5235 C   0  0  0  0  0  0  0  0  0  0  0  0
  137.9400  117.7883  137.7409 C   0  0  1  0  0  0  0  0  0  0  0  0
  137.6530  118.4978  136.4603 C   0  0  0  0  0  0  0  0  0  0  0  0
  136.2885  118.2673  135.9102 C   0  0  0  0  0  0  0  0  0  0  0  0
  136.0033  116.8695  135.4898 C   0  0  0  0  0  0  0  0  0  0  0  0
  137.0035  116.2994  134.5205 C   0  0  2  0  0  0  0  0  0  0  0  0
  136.3658  115.1298  133.9059 N   0  0  0  0  0  0  0  0  0  0  0  0
  135.8574  115.5151  132.6341 C   0  0  0  0  0  0  0  0  0  0  0  0
  136.3405  116.6731  132.2723 C   0  0  0  0  0  0  0  0  0  0  0  0
  137.2512  117.1679  133.3294 C   0  0  1  0  0  0  0  0  0  0  0  0
  136.8804  118.8724  133.6112 Cl  0  0  0  0  0  0  0  0  0  0  0  0
  137.0748  118.4100  139.1297 Cl  0  0  0  0  0  0  0  0  0  0  0  0
  1  2  2  0
  2  3  1  0
  3  4  1  0
  4  5  2  0
  5  6  1  0
  6  7  1  0
  6  8  2  0
  8  9  1  0
  9 10  1  0
  9 11  2  0
  2 12  1  0
 12 13  1  0
 13 14  1  0
 14 15  1  0
 15 16  1  0
 16 17  1  0
 17 18  1  0
 19 18  1  1
 19 20  1  0
 20 21  1  0
 21 22  2  0
 22 23  1  0
 23 24  1  1
 15 25  1  1
 11  4  1  0
 19 12  1  0
 23 19  1  0
M  END
>  <docking_score>  (1) 
-7.4909999999999997

$$$$

     RDKit          3D

 25 27  0  0  0  0  0  0  0  0999 V2000
  130.3740  138.4382  141.5286 O   0  0  0  0  0  0  0  0  0  0  0  0
  129.6251  137.7736  142.3118 C   0  0  0  0  0  0  0  0  0  0  0  0
  129.3440  136.4308  141.9133 N   0  0  0  0  0  0  0  0  0  0  0  0
  129.8733  135.8853  140.7168 C   0  0  0  0  0  0  0  0  0  0  0  0
  129.0800  135.3282  139.7574 C   0  0  0  0  0  0  0  0  0  0  0  0
  129.6328  134.8131  138.6174 C   0  0  0  0  0  0  0  0  0  0  0  0
  128.6395  134.0815  137.3480 Cl  0  0  0  0  0  0  0  0  0  0  0  0
  130.9805  134.8507  138.4277 C   0  0  0  0  0  0  0  0  0  0  0  0
  131.8008  135.4137  139.3934 C   0  0  0  0  0  0  0  0  0  0  0  0
  133.1330  135.4339  139.1719 F   0  0  0  0  0  0  0  0  0  0  0  0
  131.2378  135.9299  140.5376 C   0  0  0  0  0  0  0  0  0  0  0  0
  129.1000  138.3194  143.5020 N   0  0  0  0  0  0  0  0  0  0  0  0
  128.1702  139.3796  143.2425 C   0  0  0  0  0  0  0  0  0  0  0  0
  127.7858  140.1669  144.4590 C   0  0  0  0  0  0  0  0  0  0  0  0
  126.5133  139.5930  145.0106 C   0  0  1  0  0  0  0  0  0  0  0  0
  126.7510  138.1683  145.3838 C   0  0  0  0  0  0  0  0  0  0  0  0
  127.8236  137.9576  146.3949 C   0  0  0  0  0  0  0  0  0  0  0  0
  129.1934  138.3307  145.9518 C   0  0  0  0  0  0  0  0  0  0  0  0
  129.6254  137.6799  144.6653 C   0  0  2  0  0  0  0  0  0  0  0  0
  131.0856  137.8092  144.6048 N   0  0  0  0  0  0  0  0  0  0  0  0
  131.6607  136.5786  145.0282 C   0  0  0  0  0  0  0  0  0  0  0  0
  130.7597  135.6343  145.0682 C   0  0  0  0  0  0  0  0  0  0  0  0
  129.4539  136.1951  144.6537 C   0  0  1  0  0  0  0  0  0  0  0  0
  128.2300  135.6185  145.7903 Cl  0  0  0  0  0  0  0  0  0  0  0  0
  125.7749  140.5633  146.2665 Cl  0  0  0  0  0  0  0  0  0  0  0  0
  1  2  2  0
  2  3  1  0
  3  4  1  0
  4  5  2  0
  5  6  1  0
  6  7  1  0
  6  8  2  0
  8  9  1  0
  9 10  1  0
  9 11  2  0
  2 12  1  0
 12 13  1  0
 13 14  1  0
 14 15  1  0
 15 16  1  0
 16 17  1  0
 17 18  1  0
 19 18  1  1
 19 20  1  0
 20 21  1  0
 21 22  2  0
 22 23  1  0
 23 24  1  1
 15 25  1  1
 11  4  1  0
 19 12  1  0
 23 19  1  0
M  END
>  <docking_score>  (2) 
-7.4619999999999997

$$$$

     RDKit          3D

 25 27  0  0  0  0  0  0  0  0999 V2000
  140.1294  134.0894  139.4292 O   0  0  0  0  0  0  0  0  0  0  0  0
  139.5342  132.9746  139.5671 C   0  0  0  0  0  0  0  0  0  0  0  0
  139.7213  132.0343  138.5081 N   0  0  0  0  0  0  0  0  0  0  0  0
  140.5232  132.3374  137.3791 C   0  0  0  0  0  0  0  0  0  0  0  0
  140.0129  132.9295  136.2615 C   0  0  0  0  0  0  0  0  0  0  0  0
  140.8228  133.2044  135.1943 C   0  0  0  0  0  0  0  0  0  0  0  0
  140.2009  133.9717  133.7254 Cl  0  0  0  0  0  0  0  0  0  0  0  0
  142.1469  132.8901  135.2357 C   0  0  0  0  0  0  0  0  0  0  0  0
  142.6813  132.2879  136.3645 C   0  0  0  0  0  0  0  0  0  0  0  0
  143.9986  131.9901  136.3707 F   0  0  0  0  0  0  0  0  0  0  0  0
  141.8606  132.0144  137.4342 C   0  0  0  0  0  0  0  0  0  0  0  0
  138.7369  132.6759  140.6920 N   0  0  0  0  0  0  0  0  0  0  0  0
  137.3410  132.6381  140.3665 C   0  0  0  0  0  0  0  0  0  0  0  0
  136.4360  132.5892  141.5606 C   0  0  0  0  0  0  0  0  0  0  0  0
  136.1004  131.1534  141.8406 C   0  0  1  0  0  0  0  0  0  0  0  0
  137.3625  130.4129  142.1312 C   0  0  0  0  0  0  0  0  0  0  0  0
  138.1410  130.9346  143.2884 C   0  0  0  0  0  0  0  0  0  0  0  0
  138.6909  132.3055  143.1149 C   0  0  0  0  0  0  0  0  0  0  0  0
  139.5190  132.4864  141.8713 C   0  0  2  0  0  0  0  0  0  0  0  0
  140.3029  133.7106  142.0690 N   0  0  0  0  0  0  0  0  0  0  0  0
  141.6131  133.3401  142.4817 C   0  0  0  0  0  0  0  0  0  0  0  0
  141.8164  132.0643  142.2918 C   0  0  0  0  0  0  0  0  0  0  0  0
  140.5957  131.4622  141.7098 C   0  0  1  0  0  0  0  0  0  0  0  0
  140.2693  129.9551  142.5725 Cl  0  0  0  0  0  0  0  0  0  0  0  0
  134.8340  130.9319  143.0286 Cl  0  0  0  0  0  0  0  0  0  0  0  0
  1  2  2  0
  2  3  1  0
  3  4  1  0
  4  5  2  0
  5  6  1  0
  6  7  1  0
  6  8  2  0
  8  9  1  0
  9 10  1  0
  9 11  2  0
  2 12  1  0
 12 13  1  0
 13 14  1  0
 14 15  1  0
 15 16  1  0
 16 17  1  0
 17 18  1  0
 19 18  1  1
 19 20  1  0
 20 21  1  0
 21 22  2  0
 22 23  1  0
 23 24  1  1
 15 25  1  1
 11  4  1  0
 19 12  1  0
 23 19  1  0
M  END
>  <docking_score>  (3) 
-7.1399999999999997

$$$$
