
     RDKit          3D

 11 11  0  0  0  0  0  0  0  0999 V2000
  133.4811  120.5388  140.4444 O   0  0  0  0  0  0  0  0  0  0  0  0
  134.6254  120.9224  140.1936 C   0  0  0  0  0  0  0  0  0  0  0  0
  135.6438  119.9803  139.9076 N   0  0  0  0  0  0  0  0  0  0  0  0
  135.2574  118.9727  138.9917 C   0  0  0  0  0  0  0  0  0  0  0  0
  136.0623  118.1336  138.3168 C   0  0  0  0  0  0  0  0  0  0  0  0
  137.5109  118.0852  138.3869 C   0  0  0  0  0  0  0  0  0  0  0  0
  138.0788  117.0519  137.7901 C   0  0  0  0  0  0  0  0  0  0  0  0
  137.3419  116.1220  137.1669 F   0  0  0  0  0  0  0  0  0  0  0  0
  136.8748  120.2370  140.6097 C   0  0  0  0  0  0  0  0  0  0  0  0
  138.0899  119.8481  139.9053 C   0  0  0  0  0  0  0  0  0  0  0  0
  138.3886  118.9836  139.0004 N   0  0  0  0  0  0  0  0  0  0  0  0
  1  2  2  0
  2  3  1  0
  3  4  1  0
  4  5  2  0
  5  6  1  0
  6  7  2  3
  7  8  1  0
  3  9  1  0
  9 10  1  0
 10 11  2  0
 11  6  1  0
M  END
>  <docking_score>  (1) 
-4.4859999999999998

$$$$

     RDKit          3D

 11 11  0  0  0  0  0  0  0  0999 V2000
  136.2063  122.0729  141.4901 O   0  0  0  0  0  0  0  0  0  0  0  0
  137.0556  121.7927  140.6419 C   0  0  0  0  0  0  0  0  0  0  0  0
  136.8616  120.6844  139.7813 N   0  0  0  0  0  0  0  0  0  0  0  0
  138.0548  120.0053  139.4369 C   0  0  0  0  0  0  0  0  0  0  0  0
  138.1669  118.7808  138.8931 C   0  0  0  0  0  0  0  0  0  0  0  0
  137.0764  117.8901  138.5420 C   0  0  0  0  0  0  0  0  0  0  0  0
  137.4127  116.8226  137.8395 C   0  0  0  0  0  0  0  0  0  0  0  0
  138.6863  116.5994  137.4867 F   0  0  0  0  0  0  0  0  0  0  0  0
  135.4824  120.4694  139.4267 C   0  0  0  0  0  0  0  0  0  0  0  0
  135.1028  119.0801  139.2036 C   0  0  0  0  0  0  0  0  0  0  0  0
  135.7170  118.0077  138.8457 N   0  0  0  0  0  0  0  0  0  0  0  0
  1  2  2  0
  2  3  1  0
  3  4  1  0
  4  5  2  0
  5  6  1  0
  6  7  2  3
  7  8  1  0
  3  9  1  0
  9 10  1  0
 10 11  2  0
 11  6  1  0
M  END
>  <docking_score>  (2) 
-4.4729999999999999

$$$$

     RDKit          3D

 11 11  0  0  0  0  0  0  0  0999 V2000
  120.0085  125.9197  140.2665 O   0  0  0  0  0  0  0  0  0  0  0  0
  120.3804  124.9306  140.9011 C   0  0  0  0  0  0  0  0  0  0  0  0
  121.3790  125.0600  141.8974 N   0  0  0  0  0  0  0  0  0  0  0  0
  121.5725  123.8935  142.6755 C   0  0  0  0  0  0  0  0  0  0  0  0
  122.6146  123.6131  143.4774 C   0  0  0  0  0  0  0  0  0  0  0  0
  123.7711  124.4568  143.7151 C   0  0  0  0  0  0  0  0  0  0  0  0
  124.5725  124.0678  144.6911 C   0  0  0  0  0  0  0  0  0  0  0  0
  124.3119  122.9612  145.4010 F   0  0  0  0  0  0  0  0  0  0  0  0
  122.0006  126.3589  141.9199 C   0  0  0  0  0  0  0  0  0  0  0  0
  123.3998  126.3763  142.3273 C   0  0  0  0  0  0  0  0  0  0  0  0
  124.1533  125.6263  143.0518 N   0  0  0  0  0  0  0  0  0  0  0  0
  1  2  2  0
  2  3  1  0
  3  4  1  0
  4  5  2  0
  5  6  1  0
  6  7  2  3
  7  8  1  0
  3  9  1  0
  9 10  1  0
 10 11  2  0
 11  6  1  0
M  END
>  <docking_score>  (3) 
-4.165

$$$$
