
     RDKit          3D

 22 25  0  0  0  0  0  0  0  0999 V2000
  129.7758  133.0006  144.4110 O   0  0  0  0  0  0  0  0  0  0  0  0
  129.5003  134.1119  143.8875 C   0  0  0  0  0  0  0  0  0  0  0  0
  129.2751  134.0219  142.4711 N   0  0  0  0  0  0  0  0  0  0  0  0
  129.1789  134.9363  141.3788 C   0  0  0  0  0  0  0  0  0  0  0  0
  128.9507  134.1996  140.2451 C   0  0  0  0  0  0  0  0  0  0  0  0
  128.8058  134.7840  138.9979 C   0  0  0  0  0  0  0  0  0  0  0  0
  128.5131  133.8161  137.5550 Cl  0  0  0  0  0  0  0  0  0  0  0  0
  128.9015  136.1580  138.9393 C   0  0  0  0  0  0  0  0  0  0  0  0
  129.1321  136.9122  140.0798 C   0  0  0  0  0  0  0  0  0  0  0  0
  129.2542  138.6696  140.0029 Cl  0  0  0  0  0  0  0  0  0  0  0  0
  129.2733  136.3095  141.3125 C   0  0  0  0  0  0  0  0  0  0  0  0
  129.4840  135.1718  144.8413 N   0  0  0  0  0  0  0  0  0  0  0  0
  129.5757  136.6051  144.7226 C   0  0  0  0  0  0  0  0  0  0  0  0
  129.7052  137.3405  146.0380 C   0  0  2  0  0  0  0  0  0  0  0  0
  128.9057  138.6051  145.6553 C   0  0  0  0  0  0  0  0  0  0  0  0
  129.6807  138.8445  144.3465 C   0  0  2  0  0  0  0  0  0  0  0  0
  129.5783  137.4989  143.7414 C   0  0  0  0  0  0  0  0  0  0  0  0
  129.5028  137.3723  142.2912 C   0  0  0  0  0  0  0  0  0  0  0  0
  129.6810  138.4614  141.7148 O   0  0  0  0  0  0  0  0  0  0  0  0
  131.0732  138.9978  144.8925 C   0  0  0  0  0  0  0  0  0  0  0  0
  131.1199  137.9426  145.9818 C   0  0  0  0  0  0  0  0  0  0  0  0
  129.2142  139.8569  143.6177 F   0  0  0  0  0  0  0  0  0  0  0  0
  1  2  2  0
  2  3  1  0
  3  4  1  0
  4  5  2  0
  5  6  1  0
  6  7  1  0
  6  8  2  0
  8  9  1  0
  9 10  1  0
  9 11  2  0
  2 12  1  0
 12 13  1  0
 13 14  1  0
 14 15  1  0
 15 16  1  0
 16 17  1  0
 17 18  1  0
 18 19  2  0
 16 20  1  0
 20 21  1  0
 16 22  1  6
 11  4  1  0
 18 11  1  0
 13 17  2  0
 14 21  1  6
M  END
>  <docking_score>  (1) 
-7.7699999999999996

$$$$

     RDKit          3D

 22 25  0  0  0  0  0  0  0  0999 V2000
  123.0882  127.5700  140.2547 O   0  0  0  0  0  0  0  0  0  0  0  0
  122.9709  126.4524  140.8224 C   0  0  0  0  0  0  0  0  0  0  0  0
  121.8227  125.7148  140.3724 N   0  0  0  0  0  0  0  0  0  0  0  0
  121.0912  124.5702  140.8118 C   0  0  0  0  0  0  0  0  0  0  0  0
  120.0661  124.3716  139.9231 C   0  0  0  0  0  0  0  0  0  0  0  0
  119.1584  123.3344  140.0581 C   0  0  0  0  0  0  0  0  0  0  0  0
  117.8489  123.0993  138.9029 Cl  0  0  0  0  0  0  0  0  0  0  0  0
  119.3282  122.4953  141.1386 C   0  0  0  0  0  0  0  0  0  0  0  0
  120.3615  122.6874  142.0432 C   0  0  0  0  0  0  0  0  0  0  0  0
  120.5770  121.6131  143.4247 Cl  0  0  0  0  0  0  0  0  0  0  0  0
  121.2546  123.7272  141.8897 C   0  0  0  0  0  0  0  0  0  0  0  0
  124.0123  126.2114  141.7662 N   0  0  0  0  0  0  0  0  0  0  0  0
  124.1430  125.3044  142.8785 C   0  0  0  0  0  0  0  0  0  0  0  0
  125.3707  125.5267  143.7336 C   0  0  2  0  0  0  0  0  0  0  0  0
  125.6428  124.0524  144.1039 C   0  0  0  0  0  0  0  0  0  0  0  0
  124.1984  123.7755  144.5597 C   0  0  2  0  0  0  0  0  0  0  0  0
  123.4594  124.2854  143.3845 C   0  0  0  0  0  0  0  0  0  0  0  0
  122.2069  123.6482  142.9973 C   0  0  0  0  0  0  0  0  0  0  0  0
  121.8338  122.8014  143.8303 O   0  0  0  0  0  0  0  0  0  0  0  0
  124.0723  124.7936  145.6589 C   0  0  0  0  0  0  0  0  0  0  0  0
  124.7965  125.9955  145.0818 C   0  0  0  0  0  0  0  0  0  0  0  0
  123.9699  122.5073  144.8964 F   0  0  0  0  0  0  0  0  0  0  0  0
  1  2  2  0
  2  3  1  0
  3  4  1  0
  4  5  2  0
  5  6  1  0
  6  7  1  0
  6  8  2  0
  8  9  1  0
  9 10  1  0
  9 11  2  0
  2 12  1  0
 12 13  1  0
 13 14  1  0
 14 15  1  0
 15 16  1  0
 16 17  1  0
 17 18  1  0
 18 19  2  0
 16 20  1  0
 20 21  1  0
 16 22  1  1
 11  4  1  0
 18 11  1  0
 13 17  2  0
 14 21  1  1
M  END
>  <docking_score>  (2) 
-7.7439999999999998

$$$$
