
     RDKit          3D

 11 11  0  0  0  0  0  0  0  0999 V2000
  121.8809  128.2041  139.7446 O   0  0  0  0  0  0  0  0  0  0  0  0
  120.9204  127.5328  140.1906 C   0  0  0  0  0  0  0  0  0  0  0  0
  120.8452  126.1201  140.0289 N   0  0  0  0  0  0  0  0  0  0  0  0
  122.0450  125.4061  139.7987 C   0  0  0  0  0  0  0  0  0  0  0  0
  122.2464  124.1939  139.2523 C   0  0  0  0  0  0  0  0  0  0  0  0
  121.1565  123.3407  138.7637 C   0  0  0  0  0  0  0  0  0  0  0  0
  121.4528  122.0457  138.6337 C   0  0  0  0  0  0  0  0  0  0  0  0
  120.5077  121.2076  138.1930 F   0  0  0  0  0  0  0  0  0  0  0  0
  119.4930  125.6008  140.1290 C   0  0  0  0  0  0  0  0  0  0  0  0
  119.1648  124.6850  139.0057 C   0  0  0  0  0  0  0  0  0  0  0  0
  119.8179  123.7420  138.4128 N   0  0  0  0  0  0  0  0  0  0  0  0
  1  2  2  0
  2  3  1  0
  3  4  1  0
  4  5  2  0
  5  6  1  0
  6  7  2  3
  7  8  1  0
  3  9  1  0
  9 10  1  0
 10 11  2  0
 11  6  1  0
M  END
>  <docking_score>  (1) 
-4.327

$$$$

     RDKit          3D

 11 11  0  0  0  0  0  0  0  0999 V2000
  135.2818  132.7275  136.9490 O   0  0  0  0  0  0  0  0  0  0  0  0
  135.4731  131.7188  137.6688 C   0  0  0  0  0  0  0  0  0  0  0  0
  135.0098  131.6502  139.0135 N   0  0  0  0  0  0  0  0  0  0  0  0
  134.0251  130.6864  139.3356 C   0  0  0  0  0  0  0  0  0  0  0  0
  133.1578  130.6364  140.3622 C   0  0  0  0  0  0  0  0  0  0  0  0
  133.0875  131.6655  141.4067 C   0  0  0  0  0  0  0  0  0  0  0  0
  132.4922  131.2939  142.5421 C   0  0  0  0  0  0  0  0  0  0  0  0
  132.3917  132.1804  143.5392 F   0  0  0  0  0  0  0  0  0  0  0  0
  135.6431  132.6188  139.8903 C   0  0  0  0  0  0  0  0  0  0  0  0
  134.6486  133.3678  140.7014 C   0  0  0  0  0  0  0  0  0  0  0  0
  133.5840  133.0164  141.3422 N   0  0  0  0  0  0  0  0  0  0  0  0
  1  2  2  0
  2  3  1  0
  3  4  1  0
  4  5  2  0
  5  6  1  0
  6  7  2  3
  7  8  1  0
  3  9  1  0
  9 10  1  0
 10 11  2  0
 11  6  1  0
M  END
>  <docking_score>  (2) 
-1.6120000000000001

$$$$
