
     RDKit          3D

 29 32  0  0  0  0  0  0  0  0999 V2000
  142.4022  133.7566  141.8438 O   0  0  0  0  0  0  0  0  0  0  0  0
  141.9594  134.2656  140.7584 C   0  0  0  0  0  0  0  0  0  0  0  0
  142.7360  135.3319  140.2521 N   0  0  0  0  0  0  0  0  0  0  0  0
  143.9410  135.8129  140.9110 C   0  0  2  0  0  0  0  0  0  0  0  0
  143.7136  136.6701  142.1244 C   0  0  0  0  0  0  0  0  0  0  0  0
  144.3413  137.2389  140.8332 C   0  0  1  0  0  0  0  0  0  0  0  0
  145.7811  137.5943  140.9922 C   0  0  0  0  0  0  0  0  0  0  0  0
  146.7137  136.7305  141.5184 C   0  0  0  0  0  0  0  0  0  0  0  0
  148.0341  137.1033  141.6486 C   0  0  0  0  0  0  0  0  0  0  0  0
  148.4648  138.3424  141.2612 C   0  0  0  0  0  0  0  0  0  0  0  0
  147.5454  139.2219  140.7315 C   0  0  0  0  0  0  0  0  0  0  0  0
  146.2269  138.8452  140.6028 C   0  0  0  0  0  0  0  0  0  0  0  0
  140.7807  133.7517  140.1654 N   0  0  0  0  0  0  0  0  0  0  0  0
  139.4931  134.2806  140.6059 C   0  0  0  0  0  0  0  0  0  0  0  0
  138.5591  133.1218  140.9501 C   0  0  0  0  0  0  0  0  0  0  0  0
  139.2143  131.8047  140.5605 C   0  0  2  0  0  0  0  0  0  0  0  0
  138.4646  131.0789  139.5222 C   0  0  0  0  0  0  0  0  0  0  0  0
  138.4773  131.2961  138.2849 N   0  0  0  0  0  0  0  0  0  0  0  0
  139.1649  132.2440  137.5098 C   0  0  0  0  0  0  0  0  0  0  0  0
  138.7096  132.4882  136.1425 C   0  0  0  0  0  0  0  0  0  0  0  0
  139.5902  132.5166  135.0955 C   0  0  0  0  0  0  0  0  0  0  0  0
  139.1636  132.7507  133.8017 C   0  0  0  0  0  0  0  0  0  0  0  0
  137.8295  132.9547  133.5913 C   0  0  0  0  0  0  0  0  0  0  0  0
  136.9583  132.9247  134.6414 C   0  0  0  0  0  0  0  0  0  0  0  0
  137.4121  132.6928  135.8938 N   0  0  0  0  0  0  0  0  0  0  0  0
  140.1715  132.8770  137.9810 N   0  0  0  0  0  0  0  0  0  0  0  0
  140.7453  132.7884  139.2083 O   0  0  0  0  0  0  0  0  0  0  0  0
  139.2600  130.9348  141.8062 C   0  0  0  0  0  0  0  0  0  0  0  0
  140.6324  130.9774  142.4423 C   0  0  0  0  0  0  0  0  0  0  0  0
  1  2  2  0
  2  3  1  0
  4  3  1  6
  4  5  1  0
  5  6  1  0
  6  7  1  1
  7  8  2  0
  8  9  1  0
  9 10  2  0
 10 11  1  0
 11 12  2  0
  2 13  1  0
 13 14  1  0
 14 15  1  0
 15 16  1  0
 16 17  1  0
 17 18  2  3
 18 19  1  0
 19 20  1  0
 20 21  2  0
 21 22  1  0
 22 23  2  0
 23 24  1  0
 24 25  2  0
 19 26  2  3
 26 27  1  0
 16 28  1  1
 28 29  1  0
  6  4  1  0
 12  7  1  0
 27 13  1  0
 25 20  1  0
M  END
>  <docking_score>  (1) 
-8.3900000000000006

$$$$

     RDKit          3D

 29 32  0  0  0  0  0  0  0  0999 V2000
  132.1614  126.3743  138.3469 O   0  0  0  0  0  0  0  0  0  0  0  0
  133.4053  126.0813  138.3524 C   0  0  0  0  0  0  0  0  0  0  0  0
  134.1888  126.8366  137.4512 N   0  0  0  0  0  0  0  0  0  0  0  0
  133.6275  127.8639  136.5867 C   0  0  2  0  0  0  0  0  0  0  0  0
  134.4068  128.1479  135.3334 C   0  0  0  0  0  0  0  0  0  0  0  0
  134.2691  129.1951  136.4600 C   0  0  1  0  0  0  0  0  0  0  0  0
  133.4316  130.3657  136.0689 C   0  0  0  0  0  0  0  0  0  0  0  0
  132.1667  130.2412  135.5426 C   0  0  0  0  0  0  0  0  0  0  0  0
  131.4297  131.3522  135.1931 C   0  0  0  0  0  0  0  0  0  0  0  0
  131.9275  132.6158  135.3557 C   0  0  0  0  0  0  0  0  0  0  0  0
  133.1929  132.7611  135.8817 C   0  0  0  0  0  0  0  0  0  0  0  0
  133.9259  131.6482  136.2300 C   0  0  0  0  0  0  0  0  0  0  0  0
  133.8903  125.0715  139.2184 N   0  0  0  0  0  0  0  0  0  0  0  0
  133.0181  124.5947  140.2879 C   0  0  0  0  0  0  0  0  0  0  0  0
  133.7792  124.6182  141.6122 C   0  0  0  0  0  0  0  0  0  0  0  0
  135.2385  124.9656  141.3565 C   0  0  2  0  0  0  0  0  0  0  0  0
  136.1591  123.8830  141.7407 C   0  0  0  0  0  0  0  0  0  0  0  0
  136.4302  122.8477  141.0827 N   0  0  0  0  0  0  0  0  0  0  0  0
  135.9804  122.3902  139.8335 C   0  0  0  0  0  0  0  0  0  0  0  0
  136.1941  120.9862  139.4877 C   0  0  0  0  0  0  0  0  0  0  0  0
  136.4948  120.0570  140.4461 C   0  0  0  0  0  0  0  0  0  0  0  0
  136.7010  118.7291  140.1224 C   0  0  0  0  0  0  0  0  0  0  0  0
  136.5960  118.3631  138.8106 C   0  0  0  0  0  0  0  0  0  0  0  0
  136.2958  119.2965  137.8613 C   0  0  0  0  0  0  0  0  0  0  0  0
  136.1008  120.5868  138.2154 N   0  0  0  0  0  0  0  0  0  0  0  0
  135.4028  123.1803  139.0101 N   0  0  0  0  0  0  0  0  0  0  0  0
  135.1210  124.5021  139.1403 O   0  0  0  0  0  0  0  0  0  0  0  0
  135.5682  126.1878  142.1980 C   0  0  0  0  0  0  0  0  0  0  0  0
  135.6381  127.4306  141.3376 C   0  0  0  0  0  0  0  0  0  0  0  0
  1  2  2  0
  2  3  1  0
  4  3  1  1
  4  5  1  0
  5  6  1  0
  6  7  1  6
  7  8  2  0
  8  9  1  0
  9 10  2  0
 10 11  1  0
 11 12  2  0
  2 13  1  0
 13 14  1  0
 14 15  1  0
 15 16  1  0
 16 17  1  0
 17 18  2  3
 18 19  1  0
 19 20  1  0
 20 21  2  0
 21 22  1  0
 22 23  2  0
 23 24  1  0
 24 25  2  0
 19 26  2  3
 26 27  1  0
 16 28  1  1
 28 29  1  0
  6  4  1  0
 12  7  1  0
 27 13  1  0
 25 20  1  0
M  END
>  <docking_score>  (2) 
-8.2430000000000003

$$$$

     RDKit          3D

 29 32  0  0  0  0  0  0  0  0999 V2000
  132.6767  127.5735  140.4541 O   0  0  0  0  0  0  0  0  0  0  0  0
  132.8118  127.6280  139.1844 C   0  0  0  0  0  0  0  0  0  0  0  0
  133.3939  126.4770  138.6075 N   0  0  0  0  0  0  0  0  0  0  0  0
  133.8070  125.3236  139.3927 C   0  0  2  0  0  0  0  0  0  0  0  0
  135.2148  125.3714  139.9167 C   0  0  0  0  0  0  0  0  0  0  0  0
  134.7765  124.3376  138.8566 C   0  0  1  0  0  0  0  0  0  0  0  0
  134.7499  122.9410  139.3799 C   0  0  0  0  0  0  0  0  0  0  0  0
  135.8539  122.1201  139.3845 C   0  0  0  0  0  0  0  0  0  0  0  0
  135.7818  120.8347  139.8764 C   0  0  0  0  0  0  0  0  0  0  0  0
  134.6133  120.3290  140.3762 C   0  0  0  0  0  0  0  0  0  0  0  0
  133.4963  121.1362  140.3803 C   0  0  0  0  0  0  0  0  0  0  0  0
  133.5728  122.4204  139.8881 C   0  0  0  0  0  0  0  0  0  0  0  0
  132.3889  128.7794  138.4769 N   0  0  0  0  0  0  0  0  0  0  0  0
  130.9855  128.8790  138.0862 C   0  0  0  0  0  0  0  0  0  0  0  0
  130.8954  129.2301  136.6022 C   0  0  0  0  0  0  0  0  0  0  0  0
  132.2868  129.5270  136.0621 C   0  0  2  0  0  0  0  0  0  0  0  0
  132.4301  130.9115  135.5831 C   0  0  0  0  0  0  0  0  0  0  0  0
  132.6276  131.9389  136.2787 N   0  0  0  0  0  0  0  0  0  0  0  0
  132.7714  132.1155  137.6645 C   0  0  0  0  0  0  0  0  0  0  0  0
  132.6338  133.4633  138.2129 C   0  0  0  0  0  0  0  0  0  0  0  0
  133.5764  134.4262  137.9747 C   0  0  0  0  0  0  0  0  0  0  0  0
  133.4514  135.7009  138.4945 C   0  0  0  0  0  0  0  0  0  0  0  0
  132.3539  135.9790  139.2586 C   0  0  0  0  0  0  0  0  0  0  0  0
  131.4187  135.0127  139.4912 C   0  0  0  0  0  0  0  0  0  0  0  0
  131.5746  133.7764  138.9660 N   0  0  0  0  0  0  0  0  0  0  0  0
  133.0240  131.1251  138.4334 N   0  0  0  0  0  0  0  0  0  0  0  0
  133.1927  129.8147  138.1205 O   0  0  0  0  0  0  0  0  0  0  0  0
  132.5263  128.5928  134.8872 C   0  0  0  0  0  0  0  0  0  0  0  0
  133.9682  128.1351  134.8489 C   0  0  0  0  0  0  0  0  0  0  0  0
  1  2  2  0
  2  3  1  0
  4  3  1  6
  4  5  1  0
  5  6  1  0
  6  7  1  1
  7  8  2  0
  8  9  1  0
  9 10  2  0
 10 11  1  0
 11 12  2  0
  2 13  1  0
 13 14  1  0
 14 15  1  0
 15 16  1  0
 16 17  1  0
 17 18  2  3
 18 19  1  0
 19 20  1  0
 20 21  2  0
 21 22  1  0
 22 23  2  0
 23 24  1  0
 24 25  2  0
 19 26  2  3
 26 27  1  0
 16 28  1  6
 28 29  1  0
  6  4  1  0
 12  7  1  0
 27 13  1  0
 25 20  1  0
M  END
>  <docking_score>  (3) 
-7.9320000000000004

$$$$
