
     RDKit          3D

 19 20  0  0  0  0  0  0  0  0999 V2000
  118.2494  123.7086  142.1466 O   0  0  0  0  0  0  0  0  0  0  0  0
  119.3178  123.0899  141.7862 C   0  0  0  0  0  0  0  0  0  0  0  0
  120.4823  123.2109  142.4676 N   0  0  0  0  0  0  0  0  0  0  0  0
  121.6501  123.9596  142.4801 C   0  0  0  0  0  0  0  0  0  0  0  0
  122.5788  123.6129  143.4819 C   0  0  0  0  0  0  0  0  0  0  0  0
  123.7703  124.2401  143.6758 C   0  0  0  0  0  0  0  0  0  0  0  0
  124.9000  123.7809  144.9323 Cl  0  0  0  0  0  0  0  0  0  0  0  0
  124.1189  125.2831  142.8576 C   0  0  0  0  0  0  0  0  0  0  0  0
  123.2533  125.6636  141.8645 C   0  0  0  0  0  0  0  0  0  0  0  0
  123.7294  127.0201  140.8531 Cl  0  0  0  0  0  0  0  0  0  0  0  0
  122.0227  125.0040  141.6744 C   0  0  0  0  0  0  0  0  0  0  0  0
  119.2073  122.2782  140.6460 N   0  0  0  0  0  0  0  0  0  0  0  0
  119.7915  122.3522  139.3641 C   0  0  0  0  0  0  0  0  0  0  0  0
  118.8118  122.6515  138.2556 C   0  0  0  0  0  0  0  0  0  0  0  0
  117.8068  123.7100  138.6988 C   0  0  0  0  0  0  0  0  0  0  0  0
  118.8031  125.1684  139.1911 S   0  0  0  0  0  0  0  0  0  0  0  0
  120.4191  124.5982  139.6569 C   0  0  0  0  0  0  0  0  0  0  0  0
  121.1871  125.4812  140.5585 C   0  0  0  0  0  0  0  0  0  0  0  0
  121.1386  126.7242  140.3764 O   0  0  0  0  0  0  0  0  0  0  0  0
  1  2  2  0
  2  3  1  0
  3  4  1  0
  4  5  2  0
  5  6  1  0
  6  7  1  0
  6  8  2  0
  8  9  1  0
  9 10  1  0
  9 11  2  0
  2 12  1  0
 12 13  1  0
 13 14  1  0
 14 15  1  0
 15 16  1  0
 16 17  1  0
 17 18  1  0
 18 19  2  0
 11  4  1  0
 18 11  1  0
M  END
>  <docking_score>  (1) 
-6.6909999999999998

$$$$
