
     RDKit          3D

 20 22  0  0  0  0  0  0  0  0999 V2000
  120.8979  127.3504  140.3999 O   0  0  0  0  0  0  0  0  0  0  0  0
  120.9153  126.2786  141.0688 C   0  0  0  0  0  0  0  0  0  0  0  0
  121.9862  126.2432  141.9974 N   0  0  0  0  0  0  0  0  0  0  0  0
  122.5281  125.2062  142.8351 C   0  0  0  0  0  0  0  0  0  0  0  0
  123.4752  125.8026  143.6211 C   0  0  0  0  0  0  0  0  0  0  0  0
  124.1829  125.0573  144.5439 C   0  0  0  0  0  0  0  0  0  0  0  0
  125.1129  125.6882  145.3027 F   0  0  0  0  0  0  0  0  0  0  0  0
  123.9073  123.7133  144.6449 C   0  0  0  0  0  0  0  0  0  0  0  0
  122.9569  123.0931  143.8624 C   0  0  0  0  0  0  0  0  0  0  0  0
  122.6292  121.3876  144.0128 Cl  0  0  0  0  0  0  0  0  0  0  0  0
  122.2600  123.8615  142.9440 C   0  0  0  0  0  0  0  0  0  0  0  0
  119.8809  125.3600  140.7539 N   0  0  0  0  0  0  0  0  0  0  0  0
  119.4382  124.0275  141.0768 C   0  0  1  0  0  0  0  0  0  0  0  0
  118.5921  123.5622  139.8810 C   0  0  0  0  0  0  0  0  0  0  0  0
  119.5256  123.9700  138.7342 C   0  0  0  0  0  0  0  0  0  0  0  0
  120.9439  122.4456  139.6740 S   0  0  2  0  0  0  0  0  0  0  0  0
  120.5021  123.0022  141.0964 C   0  0  1  0  0  0  0  0  0  0  0  0
  121.3453  122.9615  142.2761 C   0  0  0  0  0  0  0  0  0  0  0  0
  121.2618  121.8639  142.8735 O   0  0  0  0  0  0  0  0  0  0  0  0
  122.1435  122.2935  138.6483 Cl  0  0  0  0  0  0  0  0  0  0  0  0
  1  2  2  0
  2  3  1  0
  3  4  1  0
  4  5  2  0
  5  6  1  0
  6  7  1  0
  6  8  2  0
  8  9  1  0
  9 10  1  0
  9 11  2  0
  2 12  1  0
 12 13  1  0
 13 14  1  6
 14 15  1  0
 15 16  1  0
 16 17  1  0
 17 18  1  6
 18 19  2  0
 16 20  1  6
 11  4  1  0
 18 11  1  0
 17 13  1  0
M  END
>  <docking_score>  (1) 
-7.7290000000000001

$$$$

     RDKit          3D

 20 22  0  0  0  0  0  0  0  0999 V2000
  122.6313  121.4512  143.8741 O   0  0  0  0  0  0  0  0  0  0  0  0
  122.1083  122.4984  143.3984 C   0  0  0  0  0  0  0  0  0  0  0  0
  121.4993  122.2691  142.1387 N   0  0  0  0  0  0  0  0  0  0  0  0
  120.9469  123.1445  141.1391 C   0  0  0  0  0  0  0  0  0  0  0  0
  120.3750  122.3373  140.1948 C   0  0  0  0  0  0  0  0  0  0  0  0
  119.7529  122.8897  139.0921 C   0  0  0  0  0  0  0  0  0  0  0  0
  119.1988  122.0531  138.1801 F   0  0  0  0  0  0  0  0  0  0  0  0
  119.7279  124.2603  138.9768 C   0  0  0  0  0  0  0  0  0  0  0  0
  120.2981  125.0914  139.9171 C   0  0  0  0  0  0  0  0  0  0  0  0
  120.2508  126.8254  139.7442 Cl  0  0  0  0  0  0  0  0  0  0  0  0
  120.9164  124.5140  141.0143 C   0  0  0  0  0  0  0  0  0  0  0  0
  122.2400  123.6547  144.2100 N   0  0  0  0  0  0  0  0  0  0  0  0
  121.9573  125.0673  144.1903 C   0  0  1  0  0  0  0  0  0  0  0  0
  122.9349  125.7074  145.1889 C   0  0  0  0  0  0  0  0  0  0  0  0
  124.2345  125.0219  144.7485 C   0  0  0  0  0  0  0  0  0  0  0  0
  123.8639  126.1288  142.7847 S   0  0  2  0  0  0  0  0  0  0  0  0
  122.3246  125.7616  142.9387 C   0  0  1  0  0  0  0  0  0  0  0  0
  121.4158  125.6080  141.8184 C   0  0  0  0  0  0  0  0  0  0  0  0
  120.9380  126.7054  141.4494 O   0  0  0  0  0  0  0  0  0  0  0  0
  125.1762  125.9124  141.9216 Cl  0  0  0  0  0  0  0  0  0  0  0  0
  1  2  2  0
  2  3  1  0
  3  4  1  0
  4  5  2  0
  5  6  1  0
  6  7  1  0
  6  8  2  0
  8  9  1  0
  9 10  1  0
  9 11  2  0
  2 12  1  0
 12 13  1  0
 13 14  1  1
 14 15  1  0
 15 16  1  0
 16 17  1  0
 17 18  1  6
 18 19  2  0
 16 20  1  6
 11  4  1  0
 18 11  1  0
 17 13  1  0
M  END
>  <docking_score>  (2) 
-7.6589999999999998

$$$$

     RDKit          3D

 20 22  0  0  0  0  0  0  0  0999 V2000
  119.6558  127.0184  139.3936 O   0  0  0  0  0  0  0  0  0  0  0  0
  119.7500  126.0511  140.2009 C   0  0  0  0  0  0  0  0  0  0  0  0
  120.7842  126.2445  141.1513 N   0  0  0  0  0  0  0  0  0  0  0  0
  121.3906  125.3856  142.1339 C   0  0  0  0  0  0  0  0  0  0  0  0
  122.2469  126.1711  142.8551 C   0  0  0  0  0  0  0  0  0  0  0  0
  122.9875  125.6276  143.8866 C   0  0  0  0  0  0  0  0  0  0  0  0
  123.8244  126.4420  144.5759 F   0  0  0  0  0  0  0  0  0  0  0  0
  122.8372  124.2880  144.1610 C   0  0  0  0  0  0  0  0  0  0  0  0
  121.9797  123.4791  143.4464 C   0  0  0  0  0  0  0  0  0  0  0  0
  121.8100  121.7843  143.8171 Cl  0  0  0  0  0  0  0  0  0  0  0  0
  121.2476  124.0470  142.4163 C   0  0  0  0  0  0  0  0  0  0  0  0
  118.8200  125.0010  139.9876 N   0  0  0  0  0  0  0  0  0  0  0  0
  118.4942  123.6854  140.4762 C   0  0  1  0  0  0  0  0  0  0  0  0
  117.7411  122.9853  139.3338 C   0  0  0  0  0  0  0  0  0  0  0  0
  118.6736  123.3290  138.1654 C   0  0  0  0  0  0  0  0  0  0  0  0
  120.1943  122.0896  139.3359 S   0  0  2  0  0  0  0  0  0  0  0  0
  119.6491  122.7821  140.6593 C   0  0  1  0  0  0  0  0  0  0  0  0
  120.4479  122.9808  141.8538 C   0  0  0  0  0  0  0  0  0  0  0  0
  120.4469  121.9686  142.5914 O   0  0  0  0  0  0  0  0  0  0  0  0
  121.4402  121.9234  138.3693 Cl  0  0  0  0  0  0  0  0  0  0  0  0
  1  2  2  0
  2  3  1  0
  3  4  1  0
  4  5  2  0
  5  6  1  0
  6  7  1  0
  6  8  2  0
  8  9  1  0
  9 10  1  0
  9 11  2  0
  2 12  1  0
 12 13  1  0
 13 14  1  6
 14 15  1  0
 15 16  1  0
 16 17  1  0
 17 18  1  6
 18 19  2  0
 16 20  1  6
 11  4  1  0
 18 11  1  0
 17 13  1  0
M  END
>  <docking_score>  (3) 
-7.2480000000000002

$$$$
