
     RDKit          3D

 11 11  0  0  0  0  0  0  0  0999 V2000
  138.1921  119.5480  140.5247 O   0  0  0  0  0  0  0  0  0  0  0  0
  136.9504  119.3937  140.3968 C   0  0  0  0  0  0  0  0  0  0  0  0
  136.1165  120.5320  140.5659 N   0  0  0  0  0  0  0  0  0  0  0  0
  134.7236  120.3399  140.3438 C   0  0  0  0  0  0  0  0  0  0  0  0
  133.8066  121.2758  140.1086 C   0  0  0  0  0  0  0  0  0  0  0  0
  134.0399  122.7144  140.0282 C   0  0  0  0  0  0  0  0  0  0  0  0
  133.0119  123.5378  140.0780 C   0  0  0  0  0  0  0  0  0  0  0  0
  131.7828  122.9781  140.2031 F   0  0  0  0  0  0  0  0  0  0  0  0
  136.8585  121.7146  140.9453 C   0  0  0  0  0  0  0  0  0  0  0  0
  136.4415  122.9411  140.2781 C   0  0  0  0  0  0  0  0  0  0  0  0
  135.2948  123.3655  139.8963 N   0  0  0  0  0  0  0  0  0  0  0  0
  1  2  2  0
  2  3  1  0
  3  4  1  0
  4  5  2  0
  5  6  1  0
  6  7  2  3
  7  8  1  0
  3  9  1  0
  9 10  1  0
 10 11  2  0
 11  6  1  0
M  END
>  <docking_score>  (1) 
-4.4450000000000003

$$$$

     RDKit          3D

 11 11  0  0  0  0  0  0  0  0999 V2000
  121.8545  127.6287  141.0285 O   0  0  0  0  0  0  0  0  0  0  0  0
  121.5944  126.5485  141.6180 C   0  0  0  0  0  0  0  0  0  0  0  0
  122.5684  126.0252  142.5108 N   0  0  0  0  0  0  0  0  0  0  0  0
  123.9296  126.3106  142.2071 C   0  0  0  0  0  0  0  0  0  0  0  0
  125.0087  125.6802  142.6655 C   0  0  0  0  0  0  0  0  0  0  0  0
  125.0230  124.5490  143.5880 C   0  0  0  0  0  0  0  0  0  0  0  0
  126.1527  124.2125  144.1776 C   0  0  0  0  0  0  0  0  0  0  0  0
  127.2463  124.9572  143.8791 F   0  0  0  0  0  0  0  0  0  0  0  0
  121.9803  125.2752  143.5993 C   0  0  0  0  0  0  0  0  0  0  0  0
  122.6779  124.0429  143.9428 C   0  0  0  0  0  0  0  0  0  0  0  0
  123.9198  123.7290  143.9438 N   0  0  0  0  0  0  0  0  0  0  0  0
  1  2  2  0
  2  3  1  0
  3  4  1  0
  4  5  2  0
  5  6  1  0
  6  7  2  3
  7  8  1  0
  3  9  1  0
  9 10  1  0
 10 11  2  0
 11  6  1  0
M  END
>  <docking_score>  (2) 
-4.2770000000000001

$$$$
