
     RDKit          3D

 25 27  0  0  0  0  0  0  0  0999 V2000
  140.5782  135.3331  137.1382 O   0  0  0  0  0  0  0  0  0  0  0  0
  141.1769  134.3042  137.5001 C   0  0  0  0  0  0  0  0  0  0  0  0
  140.7510  133.0769  136.8853 N   0  0  0  0  0  0  0  0  0  0  0  0
  139.6934  133.0869  135.9163 C   0  0  0  0  0  0  0  0  0  0  0  0
  138.3898  132.7888  136.2339 C   0  0  0  0  0  0  0  0  0  0  0  0
  137.4343  132.8262  135.2198 C   0  0  0  0  0  0  0  0  0  0  0  0
  135.7776  132.4380  135.6684 Cl  0  0  0  0  0  0  0  0  0  0  0  0
  137.7591  133.1518  133.9173 C   0  0  0  0  0  0  0  0  0  0  0  0
  139.0697  133.4506  133.6028 C   0  0  0  0  0  0  0  0  0  0  0  0
  139.5297  133.8666  131.9767 Cl  0  0  0  0  0  0  0  0  0  0  0  0
  140.0063  133.4088  134.6217 C   0  0  0  0  0  0  0  0  0  0  0  0
  142.1873  134.3784  138.4411 N   0  0  0  0  0  0  0  0  0  0  0  0
  142.6907  135.5075  139.1092 C   0  0  0  0  0  0  0  0  0  0  0  0
  143.3411  136.5944  138.2633 C   0  0  0  0  0  0  0  0  0  0  0  0
  144.3351  137.1831  139.2304 C   0  0  2  0  0  0  0  0  0  0  0  0
  143.4284  137.2516  140.4754 C   0  0  0  0  0  0  0  0  0  0  0  0
  142.7405  135.9040  140.3468 C   0  0  0  0  0  0  0  0  0  0  0  0
  142.2271  135.2097  141.5286 C   0  0  0  0  0  0  0  0  0  0  0  0
  140.7700  134.8902  141.4796 C   0  0  0  0  0  0  0  0  0  0  0  0
  140.4693  133.5158  141.9462 C   0  0  0  0  0  0  0  0  0  0  0  0
  139.3526  133.0892  142.3779 N   0  0  0  0  0  0  0  0  0  0  0  0
  139.4431  131.7057  142.7372 C   0  0  0  0  0  0  0  0  0  0  0  0
  140.6809  131.2920  142.5052 C   0  0  0  0  0  0  0  0  0  0  0  0
  141.4924  132.4171  141.9648 C   0  0  0  0  0  0  0  0  0  0  0  0
  144.8840  138.7885  138.7552 Cl  0  0  0  0  0  0  0  0  0  0  0  0
  1  2  2  0
  2  3  1  0
  3  4  1  0
  4  5  2  0
  5  6  1  0
  6  7  1  0
  6  8  2  0
  8  9  1  0
  9 10  1  0
  9 11  2  0
  2 12  1  0
 12 13  1  0
 13 14  1  0
 14 15  1  0
 15 16  1  0
 16 17  1  0
 17 18  1  0
 18 19  1  0
 19 20  1  0
 20 21  2  0
 21 22  1  0
 22 23  2  0
 23 24  1  0
 15 25  1  6
 11  4  1  0
 13 17  2  0
 24 20  1  0
M  END
>  <docking_score>  (1) 
-7.2910000000000004

$$$$

     RDKit          3D

 25 27  0  0  0  0  0  0  0  0999 V2000
  126.4452  125.0761  142.4523 O   0  0  0  0  0  0  0  0  0  0  0  0
  126.6602  125.0442  143.6774 C   0  0  0  0  0  0  0  0  0  0  0  0
  127.9884  125.4012  144.0946 N   0  0  0  0  0  0  0  0  0  0  0  0
  128.9751  125.7659  143.1195 C   0  0  0  0  0  0  0  0  0  0  0  0
  129.5421  124.8571  142.2582 C   0  0  0  0  0  0  0  0  0  0  0  0
  130.4932  125.3111  141.3459 C   0  0  0  0  0  0  0  0  0  0  0  0
  131.1944  124.1157  140.2615 Cl  0  0  0  0  0  0  0  0  0  0  0  0
  130.8772  126.6365  141.2849 C   0  0  0  0  0  0  0  0  0  0  0  0
  130.3051  127.5459  142.1519 C   0  0  0  0  0  0  0  0  0  0  0  0
  130.7552  129.2266  142.1147 Cl  0  0  0  0  0  0  0  0  0  0  0  0
  129.3622  127.0785  143.0517 C   0  0  0  0  0  0  0  0  0  0  0  0
  125.6542  124.6816  144.5539 N   0  0  0  0  0  0  0  0  0  0  0  0
  124.3272  124.3145  144.2723 C   0  0  0  0  0  0  0  0  0  0  0  0
  123.9057  122.8887  144.6029 C   0  0  0  0  0  0  0  0  0  0  0  0
  122.8253  122.6430  143.5820 C   0  0  2  0  0  0  0  0  0  0  0  0
  122.0857  123.9900  143.7045 C   0  0  0  0  0  0  0  0  0  0  0  0
  123.2855  124.9177  143.7801 C   0  0  0  0  0  0  0  0  0  0  0  0
  123.1871  126.3070  143.3304 C   0  0  0  0  0  0  0  0  0  0  0  0
  123.4438  126.5103  141.8742 C   0  0  0  0  0  0  0  0  0  0  0  0
  122.2897  126.1204  141.0297 C   0  0  0  0  0  0  0  0  0  0  0  0
  122.2415  125.1461  140.2148 N   0  0  0  0  0  0  0  0  0  0  0  0
  120.9607  125.0815  139.5771 C   0  0  0  0  0  0  0  0  0  0  0  0
  120.2109  126.0717  140.0402 C   0  0  0  0  0  0  0  0  0  0  0  0
  120.9844  126.8623  141.0369 C   0  0  0  0  0  0  0  0  0  0  0  0
  121.7712  121.2980  144.0114 Cl  0  0  0  0  0  0  0  0  0  0  0  0
  1  2  2  0
  2  3  1  0
  3  4  1  0
  4  5  2  0
  5  6  1  0
  6  7  1  0
  6  8  2  0
  8  9  1  0
  9 10  1  0
  9 11  2  0
  2 12  1  0
 12 13  1  0
 13 14  1  0
 14 15  1  0
 15 16  1  0
 16 17  1  0
 17 18  1  0
 18 19  1  0
 19 20  1  0
 20 21  2  0
 21 22  1  0
 22 23  2  0
 23 24  1  0
 15 25  1  1
 11  4  1  0
 13 17  2  0
 24 20  1  0
M  END
>  <docking_score>  (2) 
-7.2770000000000001

$$$$

     RDKit          3D

 25 27  0  0  0  0  0  0  0  0999 V2000
  140.1363  133.6311  137.8609 O   0  0  0  0  0  0  0  0  0  0  0  0
  140.3317  132.4032  137.9089 C   0  0  0  0  0  0  0  0  0  0  0  0
  140.6164  131.7599  136.6557 N   0  0  0  0  0  0  0  0  0  0  0  0
  140.6623  132.5296  135.4461 C   0  0  0  0  0  0  0  0  0  0  0  0
  141.7556  133.2780  135.0809 C   0  0  0  0  0  0  0  0  0  0  0  0
  141.7020  133.9918  133.8848 C   0  0  0  0  0  0  0  0  0  0  0  0
  143.1224  134.9371  133.4542 Cl  0  0  0  0  0  0  0  0  0  0  0  0
  140.5906  133.9672  133.0650 C   0  0  0  0  0  0  0  0  0  0  0  0
  139.4946  133.2140  133.4357 C   0  0  0  0  0  0  0  0  0  0  0  0
  138.0705  133.1504  132.4374 Cl  0  0  0  0  0  0  0  0  0  0  0  0
  139.5642  132.5111  134.6266 C   0  0  0  0  0  0  0  0  0  0  0  0
  140.2698  131.7328  139.1167 N   0  0  0  0  0  0  0  0  0  0  0  0
  140.0028  132.2442  140.3980 C   0  0  0  0  0  0  0  0  0  0  0  0
  138.8621  131.6120  141.1849 C   0  0  0  0  0  0  0  0  0  0  0  0
  138.4067  132.7626  142.0443 C   0  0  2  0  0  0  0  0  0  0  0  0
  139.7910  133.2850  142.4775 C   0  0  0  0  0  0  0  0  0  0  0  0
  140.5173  133.1732  141.1487 C   0  0  0  0  0  0  0  0  0  0  0  0
  141.6492  134.0477  140.8383 C   0  0  0  0  0  0  0  0  0  0  0  0
  141.5627  135.4138  141.4332 C   0  0  0  0  0  0  0  0  0  0  0  0
  142.7565  136.2423  141.1405 C   0  0  0  0  0  0  0  0  0  0  0  0
  143.9344  136.0569  141.5807 N   0  0  0  0  0  0  0  0  0  0  0  0
  144.8257  137.0609  141.0820 C   0  0  0  0  0  0  0  0  0  0  0  0
  144.1372  137.8847  140.3046 C   0  0  0  0  0  0  0  0  0  0  0  0
  142.7140  137.4510  140.2509 C   0  0  0  0  0  0  0  0  0  0  0  0
  137.4594  132.2439  143.4364 Cl  0  0  0  0  0  0  0  0  0  0  0  0
  1  2  2  0
  2  3  1  0
  3  4  1  0
  4  5  2  0
  5  6  1  0
  6  7  1  0
  6  8  2  0
  8  9  1  0
  9 10  1  0
  9 11  2  0
  2 12  1  0
 12 13  1  0
 13 14  1  0
 14 15  1  0
 15 16  1  0
 16 17  1  0
 17 18  1  0
 18 19  1  0
 19 20  1  0
 20 21  2  0
 21 22  1  0
 22 23  2  0
 23 24  1  0
 15 25  1  1
 11  4  1  0
 13 17  2  0
 24 20  1  0
M  END
>  <docking_score>  (3) 
-6.9740000000000002

$$$$
