
     RDKit          3D

 23 25  0  0  0  0  0  0  0  0999 V2000
  142.1519  131.4721  137.1950 O   0  0  0  0  0  0  0  0  0  0  0  0
  142.4103  132.6573  136.8526 C   0  0  0  0  0  0  0  0  0  0  0  0
  141.8529  133.8917  137.3713 N   0  0  0  0  0  0  0  0  0  0  0  0
  141.3900  134.2640  138.6588 C   0  0  0  0  0  0  0  0  0  0  0  0
  140.3102  133.6569  139.2633 C   0  0  0  0  0  0  0  0  0  0  0  0
  139.8481  134.0081  140.5115 C   0  0  0  0  0  0  0  0  0  0  0  0
  140.4737  135.0148  141.2213 C   0  0  0  0  0  0  0  0  0  0  0  0
  140.0502  135.4060  142.4693 F   0  0  0  0  0  0  0  0  0  0  0  0
  141.5518  135.6331  140.6380 C   0  0  0  0  0  0  0  0  0  0  0  0
  142.3481  136.9311  141.5482 Cl  0  0  0  0  0  0  0  0  0  0  0  0
  142.0050  135.2668  139.3777 C   0  0  0  0  0  0  0  0  0  0  0  0
  142.0371  134.4076  136.0339 C   0  0  2  0  0  0  0  0  0  0  0  0
  140.9539  133.9533  135.1317 C   0  0  0  0  0  0  0  0  0  0  0  0
  140.9867  134.1857  133.7775 C   0  0  0  0  0  0  0  0  0  0  0  0
  139.9987  133.7854  132.9049 C   0  0  0  0  0  0  0  0  0  0  0  0
  138.8876  133.1013  133.4109 C   0  0  0  0  0  0  0  0  0  0  0  0
  138.8898  132.8891  134.7631 C   0  0  0  0  0  0  0  0  0  0  0  0
  139.8529  133.2798  135.6015 N   0  0  0  0  0  0  0  0  0  0  0  0
  143.2218  133.4712  135.9462 C   0  0  2  0  0  0  0  0  0  0  0  0
  143.5282  132.9664  134.5850 C   0  0  0  0  0  0  0  0  0  0  0  0
  144.9291  132.5711  134.4789 C   0  0  0  0  0  0  0  0  0  0  0  0
  145.5579  132.3662  133.3857 N   0  0  0  0  0  0  0  0  0  0  0  0
  147.2256  131.8992  133.3814 Cl  0  0  0  0  0  0  0  0  0  0  0  0
  1  2  2  0
  2  3  1  0
  3  4  1  0
  4  5  2  0
  5  6  1  0
  6  7  2  0
  7  8  1  0
  7  9  1  0
  9 10  1  0
  9 11  2  0
  3 12  1  0
 12 13  1  6
 13 14  2  0
 14 15  1  0
 15 16  2  0
 16 17  1  0
 17 18  2  0
 12 19  1  0
 19 20  1  6
 20 21  1  0
 21 22  2  3
 22 23  1  0
 19  2  1  0
 11  4  1  0
 18 13  1  0
M  END
>  <docking_score>  (1) 
-7.1699999999999999

$$$$

     RDKit          3D

 23 25  0  0  0  0  0  0  0  0999 V2000
  146.6064  136.1402  139.1059 O   0  0  0  0  0  0  0  0  0  0  0  0
  146.0306  137.2461  139.2910 C   0  0  0  0  0  0  0  0  0  0  0  0
  146.1288  138.1386  140.4300 N   0  0  0  0  0  0  0  0  0  0  0  0
  147.1889  138.4330  141.3244 C   0  0  0  0  0  0  0  0  0  0  0  0
  147.5553  137.5835  142.3462 C   0  0  0  0  0  0  0  0  0  0  0  0
  148.5808  137.8560  143.2231 C   0  0  0  0  0  0  0  0  0  0  0  0
  149.2991  139.0299  143.1022 C   0  0  0  0  0  0  0  0  0  0  0  0
  150.3297  139.3514  143.9533 F   0  0  0  0  0  0  0  0  0  0  0  0
  148.9512  139.8907  142.0908 C   0  0  0  0  0  0  0  0  0  0  0  0
  149.8699  141.4012  141.9430 Cl  0  0  0  0  0  0  0  0  0  0  0  0
  147.9136  139.6007  141.2149 C   0  0  0  0  0  0  0  0  0  0  0  0
  144.7556  138.4824  140.1387 C   0  0  2  0  0  0  0  0  0  0  0  0
  143.8254  137.4513  140.6537 C   0  0  0  0  0  0  0  0  0  0  0  0
  144.2734  136.2993  141.2549 C   0  0  0  0  0  0  0  0  0  0  0  0
  143.4433  135.3139  141.7421 C   0  0  0  0  0  0  0  0  0  0  0  0
  142.0584  135.4788  141.6253 C   0  0  0  0  0  0  0  0  0  0  0  0
  141.6502  136.6372  141.0211 C   0  0  0  0  0  0  0  0  0  0  0  0
  142.4624  137.5879  140.5526 N   0  0  0  0  0  0  0  0  0  0  0  0
  145.1003  138.2044  138.6923 C   0  0  2  0  0  0  0  0  0  0  0  0
  143.9762  137.7108  137.8590 C   0  0  0  0  0  0  0  0  0  0  0  0
  144.4550  137.2443  136.5617 C   0  0  0  0  0  0  0  0  0  0  0  0
  144.4468  136.0300  136.1646 N   0  0  0  0  0  0  0  0  0  0  0  0
  145.0425  135.5919  134.5985 Cl  0  0  0  0  0  0  0  0  0  0  0  0
  1  2  2  0
  2  3  1  0
  3  4  1  0
  4  5  2  0
  5  6  1  0
  6  7  2  0
  7  8  1  0
  7  9  1  0
  9 10  1  0
  9 11  2  0
  3 12  1  0
 12 13  1  1
 13 14  2  0
 14 15  1  0
 15 16  2  0
 16 17  1  0
 17 18  2  0
 12 19  1  0
 19 20  1  6
 20 21  1  0
 21 22  2  3
 22 23  1  0
 19  2  1  0
 11  4  1  0
 18 13  1  0
M  END
>  <docking_score>  (2) 
-7.0839999999999996

$$$$

     RDKit          3D

 23 25  0  0  0  0  0  0  0  0999 V2000
  134.8808  125.9891  140.7925 O   0  0  0  0  0  0  0  0  0  0  0  0
  133.8991  125.4857  140.1828 C   0  0  0  0  0  0  0  0  0  0  0  0
  133.7865  124.1735  139.5755 N   0  0  0  0  0  0  0  0  0  0  0  0
  134.3450  122.9142  139.9115 C   0  0  0  0  0  0  0  0  0  0  0  0
  133.5715  121.7958  140.1368 C   0  0  0  0  0  0  0  0  0  0  0  0
  134.0986  120.5673  140.4652 C   0  0  0  0  0  0  0  0  0  0  0  0
  135.4663  120.4121  140.5836 C   0  0  0  0  0  0  0  0  0  0  0  0
  136.0432  119.2084  140.9125 F   0  0  0  0  0  0  0  0  0  0  0  0
  136.2559  121.5134  140.3632 C   0  0  0  0  0  0  0  0  0  0  0  0
  138.0113  121.3131  140.5240 Cl  0  0  0  0  0  0  0  0  0  0  0  0
  135.7079  122.7457  140.0329 C   0  0  0  0  0  0  0  0  0  0  0  0
  132.9164  124.8141  138.6156 C   0  0  2  0  0  0  0  0  0  0  0  0
  133.6969  125.5451  137.5909 C   0  0  0  0  0  0  0  0  0  0  0  0
  135.0468  125.3480  137.4239 C   0  0  0  0  0  0  0  0  0  0  0  0
  135.8102  126.0103  136.4877 C   0  0  0  0  0  0  0  0  0  0  0  0
  135.1903  126.9437  135.6492 C   0  0  0  0  0  0  0  0  0  0  0  0
  133.8464  127.1134  135.8454 C   0  0  0  0  0  0  0  0  0  0  0  0
  133.1140  126.4659  136.7549 N   0  0  0  0  0  0  0  0  0  0  0  0
  132.5272  125.7444  139.7431 C   0  0  2  0  0  0  0  0  0  0  0  0
  132.1382  127.1141  139.3257 C   0  0  0  0  0  0  0  0  0  0  0  0
  130.9527  127.5624  140.0494 C   0  0  0  0  0  0  0  0  0  0  0  0
  129.7912  127.7171  139.5401 N   0  0  0  0  0  0  0  0  0  0  0  0
  128.4534  128.2560  140.4990 Cl  0  0  0  0  0  0  0  0  0  0  0  0
  1  2  2  0
  2  3  1  0
  3  4  1  0
  4  5  2  0
  5  6  1  0
  6  7  2  0
  7  8  1  0
  7  9  1  0
  9 10  1  0
  9 11  2  0
  3 12  1  0
 12 13  1  6
 13 14  2  0
 14 15  1  0
 15 16  2  0
 16 17  1  0
 17 18  2  0
 12 19  1  0
 19 20  1  6
 20 21  1  0
 21 22  2  3
 22 23  1  0
 19  2  1  0
 11  4  1  0
 18 13  1  0
M  END
>  <docking_score>  (3) 
-6.9240000000000004

$$$$
