
     RDKit          3D

 29 33  0  0  0  0  0  0  0  0999 V2000
  144.4169  134.5884  133.7936 O   0  0  0  0  0  1  0  0  0  0  0  0
  144.0780  134.8122  135.0934 N   0  0  0  0  0  3  0  0  0  0  0  0
  144.3840  136.1150  135.4485 N   0  0  0  0  0  0  0  0  0  0  0  0
  144.6100  136.2605  136.8733 C   0  0  1  0  0  0  0  0  0  0  0  0
  145.1333  137.6305  137.3399 C   0  0  0  0  0  0  0  0  0  0  0  0
  143.7366  137.1944  137.5914 C   0  0  2  0  0  0  0  0  0  0  0  0
  143.3530  136.9109  139.0075 C   0  0  0  0  0  0  0  0  0  0  0  0
  144.0244  136.0006  139.7938 C   0  0  0  0  0  0  0  0  0  0  0  0
  143.6206  135.7848  141.0929 C   0  0  0  0  0  0  0  0  0  0  0  0
  142.5563  136.4516  141.6478 C   0  0  0  0  0  0  0  0  0  0  0  0
  141.8857  137.3634  140.8566 C   0  0  0  0  0  0  0  0  0  0  0  0
  142.2720  137.5959  139.5535 C   0  0  0  0  0  0  0  0  0  0  0  0
  142.7058  134.6143  135.3127 N   0  0  0  0  0  0  0  0  0  0  0  0
  142.4235  133.2231  135.3570 C   0  0  2  0  0  0  0  0  0  0  0  0
  141.2913  132.7285  134.6033 C   0  0  1  0  0  0  0  0  0  0  0  0
  140.0320  132.3595  135.2574 C   0  0  1  0  0  0  0  0  0  0  0  0
  139.5174  133.2067  136.3234 C   0  0  0  0  0  0  0  0  0  0  0  0
  139.8906  133.5525  137.5025 N   0  0  0  0  0  0  0  0  0  0  0  0
  141.0711  133.1803  138.2503 C   0  0  0  0  0  0  0  0  0  0  0  0
  140.9255  133.2645  139.6918 C   0  0  0  0  0  0  0  0  0  0  0  0
  139.9742  134.0590  140.2651 C   0  0  0  0  0  0  0  0  0  0  0  0
  139.8558  134.1227  141.6322 C   0  0  0  0  0  0  0  0  0  0  0  0
  140.7043  133.3788  142.4137 C   0  0  0  0  0  0  0  0  0  0  0  0
  141.6553  132.5857  141.7953 C   0  0  0  0  0  0  0  0  0  0  0  0
  141.7413  132.5488  140.4638 N   0  0  0  0  0  0  0  0  0  0  0  0
  142.2590  132.7800  137.8715 N   0  0  0  0  0  0  0  0  0  0  0  0
  142.7366  132.5932  136.5715 O   0  0  0  0  0  0  0  0  0  0  0  0
  139.3324  132.7626  133.9443 C   0  0  0  0  0  0  0  0  0  0  0  0
  140.5202  133.7232  133.7614 C   0  0  0  0  0  0  0  0  0  0  0  0
  1  2  1  0
  2  3  1  0
  4  3  1  6
  4  5  1  0
  5  6  1  0
  6  7  1  1
  7  8  2  0
  8  9  1  0
  9 10  2  0
 10 11  1  0
 11 12  2  0
  2 13  1  0
 14 13  1  1
 14 15  1  0
 15 16  1  0
 16 17  1  0
 17 18  2  3
 18 19  1  0
 19 20  1  0
 20 21  2  0
 21 22  1  0
 22 23  2  0
 23 24  1  0
 24 25  2  0
 19 26  2  3
 26 27  1  0
 16 28  1  6
 28 29  1  0
  6  4  1  0
 12  7  1  0
 27 14  1  0
 15 29  1  6
 25 20  1  0
M  CHG  2   1  -1   2   1
M  RAD  1   2   2
M  END
>  <docking_score>  (1) 
-7.0419999999999998

$$$$

     RDKit          3D

 29 33  0  0  0  0  0  0  0  0999 V2000
  142.4076  131.1959  139.5344 O   0  0  0  0  0  1  0  0  0  0  0  0
  141.4102  131.6777  138.7421 N   0  0  0  0  0  3  0  0  0  0  0  0
  140.4782  132.3565  139.5085 N   0  0  0  0  0  0  0  0  0  0  0  0
  140.7781  133.7708  139.6182 C   0  0  1  0  0  0  0  0  0  0  0  0
  140.1270  134.5118  140.7995 C   0  0  0  0  0  0  0  0  0  0  0  0
  141.5765  134.1917  140.7740 C   0  0  2  0  0  0  0  0  0  0  0  0
  142.5276  135.3365  140.6407 C   0  0  0  0  0  0  0  0  0  0  0  0
  143.4457  135.6603  141.6154 C   0  0  0  0  0  0  0  0  0  0  0  0
  144.2954  136.7287  141.4317 C   0  0  0  0  0  0  0  0  0  0  0  0
  144.2652  137.4996  140.2958 C   0  0  0  0  0  0  0  0  0  0  0  0
  143.3437  137.1720  139.3209 C   0  0  0  0  0  0  0  0  0  0  0  0
  142.4831  136.1069  139.4830 C   0  0  0  0  0  0  0  0  0  0  0  0
  141.9020  132.5648  137.7719 N   0  0  0  0  0  0  0  0  0  0  0  0
  141.8050  131.9701  136.4858 C   0  0  2  0  0  0  0  0  0  0  0  0
  142.2800  132.7224  135.3444 C   0  0  1  0  0  0  0  0  0  0  0  0
  141.3552  133.3765  134.4134 C   0  0  1  0  0  0  0  0  0  0  0  0
  140.1920  134.0701  134.9471 C   0  0  0  0  0  0  0  0  0  0  0  0
  139.1286  133.7488  135.5914 N   0  0  0  0  0  0  0  0  0  0  0  0
  138.6776  132.4552  136.0544 C   0  0  0  0  0  0  0  0  0  0  0  0
  137.2409  132.3409  136.2251 C   0  0  0  0  0  0  0  0  0  0  0  0
  136.3795  133.1839  135.5832 C   0  0  0  0  0  0  0  0  0  0  0  0
  135.0232  133.0565  135.7608 C   0  0  0  0  0  0  0  0  0  0  0  0
  134.5454  132.0727  136.5903 C   0  0  0  0  0  0  0  0  0  0  0  0
  135.4503  131.2381  137.2230 C   0  0  0  0  0  0  0  0  0  0  0  0
  136.7617  131.3915  137.0267 N   0  0  0  0  0  0  0  0  0  0  0  0
  139.3245  131.3568  136.3545 N   0  0  0  0  0  0  0  0  0  0  0  0
  140.7012  131.1217  136.3070 O   0  0  0  0  0  0  0  0  0  0  0  0
  142.4672  134.4172  134.1760 C   0  0  0  0  0  0  0  0  0  0  0  0
  142.9122  134.0729  135.6079 C   0  0  0  0  0  0  0  0  0  0  0  0
  1  2  1  0
  2  3  1  0
  4  3  1  1
  4  5  1  0
  5  6  1  0
  6  7  1  6
  7  8  2  0
  8  9  1  0
  9 10  2  0
 10 11  1  0
 11 12  2  0
  2 13  1  0
 14 13  1  1
 14 15  1  0
 15 16  1  0
 16 17  1  0
 17 18  2  3
 18 19  1  0
 19 20  1  0
 20 21  2  0
 21 22  1  0
 22 23  2  0
 23 24  1  0
 24 25  2  0
 19 26  2  3
 26 27  1  0
 16 28  1  1
 28 29  1  0
  6  4  1  0
 12  7  1  0
 27 14  1  0
 15 29  1  1
 25 20  1  0
M  CHG  2   1  -1   2   1
M  RAD  1   2   2
M  END
>  <docking_score>  (2) 
-6.8040000000000003

$$$$

     RDKit          3D

 29 33  0  0  0  0  0  0  0  0999 V2000
  135.3958  126.5290  135.6398 O   0  0  0  0  0  1  0  0  0  0  0  0
  134.3626  126.9828  136.4021 N   0  0  0  0  0  3  0  0  0  0  0  0
  133.2412  127.1826  135.6151 N   0  0  0  0  0  0  0  0  0  0  0  0
  133.1628  128.5352  135.0986 C   0  0  1  0  0  0  0  0  0  0  0  0
  131.7834  128.9858  134.5861 C   0  0  0  0  0  0  0  0  0  0  0  0
  132.3524  129.4904  135.8612 C   0  0  2  0  0  0  0  0  0  0  0  0
  132.7526  130.9293  135.9098 C   0  0  0  0  0  0  0  0  0  0  0  0
  131.8877  131.9546  135.5962 C   0  0  0  0  0  0  0  0  0  0  0  0
  132.3185  133.2612  135.6608 C   0  0  0  0  0  0  0  0  0  0  0  0
  133.5987  133.5912  136.0318 C   0  0  0  0  0  0  0  0  0  0  0  0
  134.4628  132.5609  136.3456 C   0  0  0  0  0  0  0  0  0  0  0  0
  134.0537  131.2453  136.2880 C   0  0  0  0  0  0  0  0  0  0  0  0
  134.0249  126.0701  137.4136 N   0  0  0  0  0  0  0  0  0  0  0  0
  134.7008  126.4141  138.6144 C   0  0  2  0  0  0  0  0  0  0  0  0
  135.3579  125.3606  139.3578 C   0  0  1  0  0  0  0  0  0  0  0  0
  134.7809  124.8100  140.5881 C   0  0  1  0  0  0  0  0  0  0  0  0
  133.3474  124.5629  140.6445 C   0  0  0  0  0  0  0  0  0  0  0  0
  132.2765  125.2701  140.5997 N   0  0  0  0  0  0  0  0  0  0  0  0
  132.1122  126.7005  140.4637 C   0  0  0  0  0  0  0  0  0  0  0  0
  130.8697  127.2207  141.0038 C   0  0  0  0  0  0  0  0  0  0  0  0
  129.6839  127.0534  140.3474 C   0  0  0  0  0  0  0  0  0  0  0  0
  128.5206  127.5553  140.8784 C   0  0  0  0  0  0  0  0  0  0  0  0
  128.5649  128.2261  142.0752 C   0  0  0  0  0  0  0  0  0  0  0  0
  129.7858  128.3750  142.7099 C   0  0  0  0  0  0  0  0  0  0  0  0
  130.8961  127.8740  142.1640 N   0  0  0  0  0  0  0  0  0  0  0  0
  132.8769  127.6249  139.9388 N   0  0  0  0  0  0  0  0  0  0  0  0
  134.1278  127.4742  139.3341 O   0  0  0  0  0  0  0  0  0  0  0  0
  135.4817  123.4868  140.2218 C   0  0  0  0  0  0  0  0  0  0  0  0
  135.3364  123.9665  138.7672 C   0  0  0  0  0  0  0  0  0  0  0  0
  1  2  1  0
  2  3  1  0
  4  3  1  1
  4  5  1  0
  5  6  1  0
  6  7  1  6
  7  8  2  0
  8  9  1  0
  9 10  2  0
 10 11  1  0
 11 12  2  0
  2 13  1  0
 14 13  1  1
 14 15  1  0
 15 16  1  0
 16 17  1  0
 17 18  2  3
 18 19  1  0
 19 20  1  0
 20 21  2  0
 21 22  1  0
 22 23  2  0
 23 24  1  0
 24 25  2  0
 19 26  2  3
 26 27  1  0
 16 28  1  6
 28 29  1  0
  6  4  1  0
 12  7  1  0
 27 14  1  0
 15 29  1  6
 25 20  1  0
M  CHG  2   1  -1   2   1
M  RAD  1   2   2
M  END
>  <docking_score>  (3) 
-6.617

$$$$
