
     RDKit          3D

 11 11  0  0  0  0  0  0  0  0999 V2000
  123.7495  126.4319  140.6923 O   0  0  0  0  0  0  0  0  0  0  0  0
  123.5168  126.4850  141.9459 C   0  0  0  0  0  0  0  0  0  0  0  0
  122.8921  125.3559  142.5917 N   0  0  0  0  0  0  0  0  0  0  0  0
  123.6535  124.6357  143.5592 C   0  0  0  0  0  0  0  0  0  0  0  0
  123.4502  123.3362  143.8556 C   0  0  0  0  0  0  0  0  0  0  0  0
  122.4761  122.4066  143.3059 C   0  0  0  0  0  0  0  0  0  0  0  0
  122.3482  121.2230  143.8568 C   0  0  0  0  0  0  0  0  0  0  0  0
  123.0476  120.7800  144.9032 F   0  0  0  0  0  0  0  0  0  0  0  0
  121.5540  125.1455  142.1287 C   0  0  0  0  0  0  0  0  0  0  0  0
  121.2282  123.7973  141.6879 C   0  0  0  0  0  0  0  0  0  0  0  0
  121.6287  122.6673  142.1999 N   0  0  0  0  0  0  0  0  0  0  0  0
  1  2  2  0
  2  3  1  0
  3  4  1  0
  4  5  2  0
  5  6  1  0
  6  7  2  3
  7  8  1  0
  3  9  1  0
  9 10  1  0
 10 11  2  0
 11  6  1  0
M  END
>  <docking_score>  (1) 
-4.2889999999999997

$$$$

     RDKit          3D

 11 11  0  0  0  0  0  0  0  0999 V2000
  125.0568  126.8250  141.1654 O   0  0  0  0  0  0  0  0  0  0  0  0
  123.8432  126.7694  141.5560 C   0  0  0  0  0  0  0  0  0  0  0  0
  123.0634  125.5926  141.2571 N   0  0  0  0  0  0  0  0  0  0  0  0
  123.0358  125.1363  139.9061 C   0  0  0  0  0  0  0  0  0  0  0  0
  122.0186  124.4275  139.3759 C   0  0  0  0  0  0  0  0  0  0  0  0
  120.7829  123.9808  139.9992 C   0  0  0  0  0  0  0  0  0  0  0  0
  119.9997  123.1616  139.3386 C   0  0  0  0  0  0  0  0  0  0  0  0
  120.2374  122.6868  138.1145 F   0  0  0  0  0  0  0  0  0  0  0  0
  122.4242  125.0620  142.4229 C   0  0  0  0  0  0  0  0  0  0  0  0
  120.9945  124.8117  142.3174 C   0  0  0  0  0  0  0  0  0  0  0  0
  120.3334  124.3583  141.2894 N   0  0  0  0  0  0  0  0  0  0  0  0
  1  2  2  0
  2  3  1  0
  3  4  1  0
  4  5  2  0
  5  6  1  0
  6  7  2  3
  7  8  1  0
  3  9  1  0
  9 10  1  0
 10 11  2  0
 11  6  1  0
M  END
>  <docking_score>  (2) 
-3.1019999999999999

$$$$

     RDKit          3D

 11 11  0  0  0  0  0  0  0  0999 V2000
  139.5076  114.3128  163.6572 O   0  0  0  0  0  0  0  0  0  0  0  0
  139.5939  115.3982  162.9917 C   0  0  0  0  0  0  0  0  0  0  0  0
  140.8338  115.7157  162.3254 N   0  0  0  0  0  0  0  0  0  0  0  0
  141.9879  114.9487  162.6633 C   0  0  0  0  0  0  0  0  0  0  0  0
  143.2508  115.4077  162.5522 C   0  0  0  0  0  0  0  0  0  0  0  0
  143.7234  116.7045  162.0939 C   0  0  0  0  0  0  0  0  0  0  0  0
  145.0106  116.8831  161.9147 C   0  0  0  0  0  0  0  0  0  0  0  0
  145.9528  115.9606  162.1191 F   0  0  0  0  0  0  0  0  0  0  0  0
  140.6832  116.7947  161.3968 C   0  0  0  0  0  0  0  0  0  0  0  0
  141.6319  117.8911  161.5221 C   0  0  0  0  0  0  0  0  0  0  0  0
  142.9004  117.8245  161.8153 N   0  0  0  0  0  0  0  0  0  0  0  0
  1  2  2  0
  2  3  1  0
  3  4  1  0
  4  5  2  0
  5  6  1  0
  6  7  2  3
  7  8  1  0
  3  9  1  0
  9 10  1  0
 10 11  2  0
 11  6  1  0
M  END
>  <docking_score>  (3) 
-2.1699999999999999

$$$$
