
     RDKit          3D

 21 23  0  0  0  0  0  0  0  0999 V2000
  122.2426  126.7461  139.8189 O   0  0  0  0  0  0  0  0  0  0  0  0
  122.5010  126.1272  140.9047 C   0  0  0  0  0  0  0  0  0  0  0  0
  123.8355  126.3468  141.3797 N   0  0  0  0  0  0  0  0  0  0  0  0
  124.6561  125.7080  142.3519 C   0  0  0  0  0  0  0  0  0  0  0  0
  125.8918  126.3428  142.3179 C   0  0  0  0  0  0  0  0  0  0  0  0
  126.9375  125.9804  143.1331 C   0  0  0  0  0  0  0  0  0  0  0  0
  128.5006  126.7592  143.1128 Cl  0  0  0  0  0  0  0  0  0  0  0  0
  126.7672  124.9368  144.0346 C   0  0  0  0  0  0  0  0  0  0  0  0
  125.5544  124.2970  144.0836 C   0  0  0  0  0  0  0  0  0  0  0  0
  125.3934  123.2824  144.9621 F   0  0  0  0  0  0  0  0  0  0  0  0
  124.5145  124.6699  143.2611 C   0  0  0  0  0  0  0  0  0  0  0  0
  121.4345  125.3552  141.4211 N   0  0  0  0  0  0  0  0  0  0  0  0
  121.3035  124.1164  142.1635 C   0  0  0  0  0  0  0  0  0  0  0  0
  120.0514  123.3490  141.9537 C   0  0  0  0  0  0  0  0  0  0  0  0
  120.0165  122.3471  143.0867 C   0  0  1  0  0  0  0  0  0  0  0  0
  121.4718  122.2336  143.5025 C   0  0  0  0  0  0  0  0  0  0  0  0
  122.0679  123.4875  143.0161 C   0  0  0  0  0  0  0  0  0  0  0  0
  123.3978  123.7962  143.5734 C   0  0  0  0  0  0  0  0  0  0  0  0
  123.6105  123.1042  144.6033 O   0  0  0  0  0  0  0  0  0  0  0  0
  119.2559  122.9181  144.2856 C   0  0  0  0  0  0  0  0  0  0  0  0
  118.8658  121.6445  145.4324 Cl  0  0  0  0  0  0  0  0  0  0  0  0
  1  2  2  0
  2  3  1  0
  3  4  1  0
  4  5  2  0
  5  6  1  0
  6  7  1  0
  6  8  2  0
  8  9  1  0
  9 10  1  0
  9 11  2  0
  2 12  1  0
 12 13  1  0
 13 14  1  0
 14 15  1  0
 15 16  1  0
 16 17  1  0
 17 18  1  0
 18 19  2  0
 15 20  1  1
 20 21  1  0
 11  4  1  0
 18 11  1  0
 13 17  2  0
M  END
>  <docking_score>  (1) 
-7.4429999999999996

$$$$

     RDKit          3D

 21 23  0  0  0  0  0  0  0  0999 V2000
  140.1884  131.9325  139.3076 O   0  0  0  0  0  0  0  0  0  0  0  0
  139.6966  132.0235  138.1335 C   0  0  0  0  0  0  0  0  0  0  0  0
  140.6297  132.5172  137.1637 N   0  0  0  0  0  0  0  0  0  0  0  0
  140.5033  133.0246  135.8396 C   0  0  0  0  0  0  0  0  0  0  0  0
  141.7745  133.4092  135.4310 C   0  0  0  0  0  0  0  0  0  0  0  0
  142.0269  133.9484  134.1921 C   0  0  0  0  0  0  0  0  0  0  0  0
  143.6129  134.4406  133.6512 Cl  0  0  0  0  0  0  0  0  0  0  0  0
  140.9765  134.1226  133.2993 C   0  0  0  0  0  0  0  0  0  0  0  0
  139.7135  133.7491  133.6837 C   0  0  0  0  0  0  0  0  0  0  0  0
  138.6947  133.9205  132.8118 F   0  0  0  0  0  0  0  0  0  0  0  0
  139.4740  133.2099  134.9283 C   0  0  0  0  0  0  0  0  0  0  0  0
  138.3446  131.6248  138.0191 N   0  0  0  0  0  0  0  0  0  0  0  0
  137.2020  132.0184  137.2174 C   0  0  0  0  0  0  0  0  0  0  0  0
  135.8650  131.8147  137.8268 C   0  0  0  0  0  0  0  0  0  0  0  0
  134.8908  131.9470  136.6769 C   0  0  1  0  0  0  0  0  0  0  0  0
  135.6630  132.7571  135.6516 C   0  0  0  0  0  0  0  0  0  0  0  0
  137.0686  132.5358  136.0253 C   0  0  0  0  0  0  0  0  0  0  0  0
  138.0504  132.9337  134.9995 C   0  0  0  0  0  0  0  0  0  0  0  0
  137.4848  133.0671  133.8828 O   0  0  0  0  0  0  0  0  0  0  0  0
  134.6153  130.5801  136.0461 C   0  0  0  0  0  0  0  0  0  0  0  0
  135.1541  129.2893  137.1104 Cl  0  0  0  0  0  0  0  0  0  0  0  0
  1  2  2  0
  2  3  1  0
  3  4  1  0
  4  5  2  0
  5  6  1  0
  6  7  1  0
  6  8  2  0
  8  9  1  0
  9 10  1  0
  9 11  2  0
  2 12  1  0
 12 13  1  0
 13 14  1  0
 14 15  1  0
 15 16  1  0
 16 17  1  0
 17 18  1  0
 18 19  2  0
 15 20  1  6
 20 21  1  0
 11  4  1  0
 18 11  1  0
 13 17  2  0
M  END
>  <docking_score>  (2) 
-7.3739999999999997

$$$$
