
     RDKit          3D

 19 21  0  0  0  0  0  0  0  0999 V2000
  135.4480  118.1559  131.9885 O   0  0  0  0  0  0  0  0  0  0  0  0
  136.3031  117.5507  132.7840 C   0  0  0  0  0  0  0  0  0  0  0  0
  135.9163  117.5262  134.1172 N   0  0  0  0  0  0  0  0  0  0  0  0
  136.5575  117.5560  135.3644 C   0  0  0  0  0  0  0  0  0  0  0  0
  136.1807  118.5579  136.2985 C   0  0  0  0  0  0  0  0  0  0  0  0
  136.6676  118.6876  137.5430 C   0  0  0  0  0  0  0  0  0  0  0  0
  136.1275  119.9790  138.6307 Cl  0  0  0  0  0  0  0  0  0  0  0  0
  137.6049  117.8139  138.0068 C   0  0  0  0  0  0  0  0  0  0  0  0
  138.0136  116.8190  137.1508 C   0  0  0  0  0  0  0  0  0  0  0  0
  138.9378  115.9624  137.6971 F   0  0  0  0  0  0  0  0  0  0  0  0
  137.5135  116.6697  135.8393 C   0  0  0  0  0  0  0  0  0  0  0  0
  137.5048  116.9746  132.3335 N   0  0  0  0  0  0  0  0  0  0  0  0
  138.8368  117.6112  132.4882 C   0  0  0  0  0  0  0  0  0  0  0  0
  139.6256  116.7584  133.4913 C   0  0  0  0  0  0  0  0  0  0  0  0
  138.8328  115.5599  133.8330 C   0  0  0  0  0  0  0  0  0  0  0  0
  138.3273  114.7230  132.7220 C   0  0  0  0  0  0  0  0  0  0  0  0
  137.6512  115.6371  131.7035 C   0  0  0  0  0  0  0  0  0  0  0  0
  138.0811  115.5585  135.0768 C   0  0  0  0  0  0  0  0  0  0  0  0
  137.8905  114.3770  135.5825 O   0  0  0  0  0  0  0  0  0  0  0  0
  1  2  2  0
  2  3  1  0
  3  4  1  0
  4  5  2  0
  5  6  1  0
  6  7  1  0
  6  8  2  0
  8  9  1  0
  9 10  1  0
  9 11  2  0
  2 12  1  0
 12 13  1  0
 13 14  1  0
 14 15  1  0
 15 16  1  0
 16 17  1  0
 15 18  1  0
 18 19  2  0
 11  4  1  0
 18 11  1  0
 17 12  1  0
M  END
>  <docking_score>  (1) 
-7.3419999999999996

$$$$

     RDKit          3D

 19 21  0  0  0  0  0  0  0  0999 V2000
  121.1989  121.5323  138.3230 O   0  0  0  0  0  0  0  0  0  0  0  0
  120.5653  122.5932  138.7738 C   0  0  0  0  0  0  0  0  0  0  0  0
  121.3250  123.7553  138.7583 N   0  0  0  0  0  0  0  0  0  0  0  0
  121.4232  124.9183  139.5364 C   0  0  0  0  0  0  0  0  0  0  0  0
  122.6906  125.2729  140.0716 C   0  0  0  0  0  0  0  0  0  0  0  0
  122.9525  126.3742  140.7936 C   0  0  0  0  0  0  0  0  0  0  0  0
  124.5752  126.7221  141.4166 Cl  0  0  0  0  0  0  0  0  0  0  0  0
  121.9593  127.2657  141.0688 C   0  0  0  0  0  0  0  0  0  0  0  0
  120.7068  126.9807  140.5793 C   0  0  0  0  0  0  0  0  0  0  0  0
  119.7658  127.9370  140.8733 F   0  0  0  0  0  0  0  0  0  0  0  0
  120.4140  125.8270  139.8205 C   0  0  0  0  0  0  0  0  0  0  0  0
  119.2355  122.5640  139.2315 N   0  0  0  0  0  0  0  0  0  0  0  0
  118.8540  122.5530  140.6660 C   0  0  0  0  0  0  0  0  0  0  0  0
  118.1831  123.9017  140.9600 C   0  0  0  0  0  0  0  0  0  0  0  0
  118.0450  124.6565  139.6979 C   0  0  0  0  0  0  0  0  0  0  0  0
  117.3849  123.9841  138.5567 C   0  0  0  0  0  0  0  0  0  0  0  0
  118.0171  122.6058  138.3822 C   0  0  0  0  0  0  0  0  0  0  0  0
  119.0198  125.6925  139.4005 C   0  0  0  0  0  0  0  0  0  0  0  0
  118.5692  126.6456  138.6412 O   0  0  0  0  0  0  0  0  0  0  0  0
  1  2  2  0
  2  3  1  0
  3  4  1  0
  4  5  2  0
  5  6  1  0
  6  7  1  0
  6  8  2  0
  8  9  1  0
  9 10  1  0
  9 11  2  0
  2 12  1  0
 12 13  1  0
 13 14  1  0
 14 15  1  0
 15 16  1  0
 16 17  1  0
 15 18  1  0
 18 19  2  0
 11  4  1  0
 18 11  1  0
 17 12  1  0
M  END
>  <docking_score>  (2) 
-7.1559999999999997

$$$$
