
     RDKit          3D

 20 22  0  0  0  0  0  0  0  0999 V2000
  135.7898  117.7946  131.9301 O   0  0  0  0  0  0  0  0  0  0  0  0
  136.3970  117.1296  132.8259 C   0  0  0  0  0  0  0  0  0  0  0  0
  136.3182  117.8076  134.0564 N   0  0  0  0  0  0  0  0  0  0  0  0
  136.8687  117.6270  135.3542 C   0  0  0  0  0  0  0  0  0  0  0  0
  136.3602  118.6286  136.1457 C   0  0  0  0  0  0  0  0  0  0  0  0
  136.7144  118.7135  137.4603 C   0  0  0  0  0  0  0  0  0  0  0  0
  136.1096  119.9547  138.5215 Cl  0  0  0  0  0  0  0  0  0  0  0  0
  137.5859  117.7866  137.9856 C   0  0  0  0  0  0  0  0  0  0  0  0
  138.0937  116.7827  137.1862 C   0  0  0  0  0  0  0  0  0  0  0  0
  139.2008  115.6044  137.8523 Cl  0  0  0  0  0  0  0  0  0  0  0  0
  137.7556  116.6730  135.8634 C   0  0  0  0  0  0  0  0  0  0  0  0
  136.9797  115.9159  132.3753 N   0  0  0  0  0  0  0  0  0  0  0  0
  137.7672  114.8585  132.9340 C   0  0  0  0  0  0  0  0  0  0  0  0
  137.9903  113.6821  132.0415 C   0  0  0  0  0  0  0  0  0  0  0  0
  139.4837  113.8569  131.7409 C   0  0  0  0  0  0  0  0  0  0  0  0
  139.1869  113.1789  134.2115 S   0  0  2  0  0  0  0  0  0  0  0  0
  138.3512  114.6950  134.0895 C   0  0  0  0  0  0  0  0  0  0  0  0
  138.4463  115.5302  135.3067 C   0  0  0  0  0  0  0  0  0  0  0  0
  139.3783  115.1543  136.0759 O   0  0  0  0  0  0  0  0  0  0  0  0
  140.0210  112.1138  134.2257 Cl  0  0  0  0  0  0  0  0  0  0  0  0
  1  2  2  0
  2  3  1  0
  3  4  1  0
  4  5  2  0
  5  6  1  0
  6  7  1  0
  6  8  2  0
  8  9  1  0
  9 10  1  0
  9 11  2  0
  2 12  1  0
 12 13  1  0
 13 14  1  0
 14 15  1  0
 15 16  1  0
 16 17  1  0
 17 18  1  0
 18 19  2  0
 16 20  1  0
 11  4  1  0
 18 11  1  0
 13 17  2  0
M  END
>  <docking_score>  (1) 
-7.0209999999999999

$$$$

     RDKit          3D

 20 22  0  0  0  0  0  0  0  0999 V2000
  140.3377  134.3773  142.7434 O   0  0  0  0  0  0  0  0  0  0  0  0
  140.6671  134.6508  141.5475 C   0  0  0  0  0  0  0  0  0  0  0  0
  140.0517  133.7431  140.6658 N   0  0  0  0  0  0  0  0  0  0  0  0
  140.1140  133.4795  139.2705 C   0  0  0  0  0  0  0  0  0  0  0  0
  139.2160  132.4714  139.0150 C   0  0  0  0  0  0  0  0  0  0  0  0
  139.0535  132.0002  137.7452 C   0  0  0  0  0  0  0  0  0  0  0  0
  137.9349  130.7260  137.3481 Cl  0  0  0  0  0  0  0  0  0  0  0  0
  139.7978  132.5442  136.7231 C   0  0  0  0  0  0  0  0  0  0  0  0
  140.6985  133.5566  136.9854 C   0  0  0  0  0  0  0  0  0  0  0  0
  141.6447  134.2487  135.6879 Cl  0  0  0  0  0  0  0  0  0  0  0  0
  140.8823  134.0492  138.2502 C   0  0  0  0  0  0  0  0  0  0  0  0
  141.5401  135.7617  141.4088 N   0  0  0  0  0  0  0  0  0  0  0  0
  142.2136  136.4410  140.3432 C   0  0  0  0  0  0  0  0  0  0  0  0
  142.9104  137.7055  140.7253 C   0  0  0  0  0  0  0  0  0  0  0  0
  144.3699  137.2556  140.5884 C   0  0  0  0  0  0  0  0  0  0  0  0
  143.2975  137.3887  138.2467 S   0  0  2  0  0  0  0  0  0  0  0  0
  142.3559  136.1865  139.0712 C   0  0  0  0  0  0  0  0  0  0  0  0
  141.8832  135.0923  138.1952 C   0  0  0  0  0  0  0  0  0  0  0  0
  142.5163  135.0456  137.1004 O   0  0  0  0  0  0  0  0  0  0  0  0
  144.2125  138.1912  137.6557 Cl  0  0  0  0  0  0  0  0  0  0  0  0
  1  2  2  0
  2  3  1  0
  3  4  1  0
  4  5  2  0
  5  6  1  0
  6  7  1  0
  6  8  2  0
  8  9  1  0
  9 10  1  0
  9 11  2  0
  2 12  1  0
 12 13  1  0
 13 14  1  0
 14 15  1  0
 15 16  1  0
 16 17  1  0
 17 18  1  0
 18 19  2  0
 16 20  1  0
 11  4  1  0
 18 11  1  0
 13 17  2  0
M  END
>  <docking_score>  (2) 
-6.9420000000000002

$$$$

     RDKit          3D

 20 22  0  0  0  0  0  0  0  0999 V2000
  141.2525  132.1629  139.5344 O   0  0  0  0  0  0  0  0  0  0  0  0
  140.4951  132.2123  138.5158 C   0  0  0  0  0  0  0  0  0  0  0  0
  141.2116  132.7175  137.4152 N   0  0  0  0  0  0  0  0  0  0  0  0
  140.8957  133.0908  136.0806 C   0  0  0  0  0  0  0  0  0  0  0  0
  142.0729  133.4748  135.4850 C   0  0  0  0  0  0  0  0  0  0  0  0
  142.0830  133.8905  134.1858 C   0  0  0  0  0  0  0  0  0  0  0  0
  143.5362  134.3911  133.3672 Cl  0  0  0  0  0  0  0  0  0  0  0  0
  140.9029  133.9216  133.4780 C   0  0  0  0  0  0  0  0  0  0  0  0
  139.7233  133.5347  134.0811 C   0  0  0  0  0  0  0  0  0  0  0  0
  138.2234  133.5735  133.1830 Cl  0  0  0  0  0  0  0  0  0  0  0  0
  139.6833  133.1130  135.3837 C   0  0  0  0  0  0  0  0  0  0  0  0
  139.1672  131.7621  138.7379 N   0  0  0  0  0  0  0  0  0  0  0  0
  137.9577  131.6453  137.9802 C   0  0  0  0  0  0  0  0  0  0  0  0
  136.8391  130.9272  138.6609 C   0  0  0  0  0  0  0  0  0  0  0  0
  135.8860  132.1012  138.9147 C   0  0  0  0  0  0  0  0  0  0  0  0
  135.9778  131.6117  136.3842 S   0  0  2  0  0  0  0  0  0  0  0  0
  137.6097  132.0434  136.7872 C   0  0  0  0  0  0  0  0  0  0  0  0
  138.3151  132.7812  135.7166 C   0  0  0  0  0  0  0  0  0  0  0  0
  137.5191  133.2540  134.8539 O   0  0  0  0  0  0  0  0  0  0  0  0
  134.6500  131.4811  136.1599 Cl  0  0  0  0  0  0  0  0  0  0  0  0
  1  2  2  0
  2  3  1  0
  3  4  1  0
  4  5  2  0
  5  6  1  0
  6  7  1  0
  6  8  2  0
  8  9  1  0
  9 10  1  0
  9 11  2  0
  2 12  1  0
 12 13  1  0
 13 14  1  0
 14 15  1  0
 15 16  1  0
 16 17  1  0
 17 18  1  0
 18 19  2  0
 16 20  1  0
 11  4  1  0
 18 11  1  0
 13 17  2  0
M  END
>  <docking_score>  (3) 
-6.8579999999999997

$$$$
