
     RDKit          3D

 20 22  0  0  0  0  0  0  0  0999 V2000
  120.6676  121.1676  144.2408 O   0  0  0  0  0  0  0  0  0  0  0  0
  121.1625  122.0537  143.5058 C   0  0  0  0  0  0  0  0  0  0  0  0
  120.3874  122.2556  142.3349 N   0  0  0  0  0  0  0  0  0  0  0  0
  120.3246  123.2065  141.2704 C   0  0  0  0  0  0  0  0  0  0  0  0
  119.3090  122.8101  140.4242 C   0  0  0  0  0  0  0  0  0  0  0  0
  118.9957  123.5290  139.2901 C   0  0  0  0  0  0  0  0  0  0  0  0
  117.7057  123.0298  138.2111 Cl  0  0  0  0  0  0  0  0  0  0  0  0
  119.7500  124.6600  139.0506 C   0  0  0  0  0  0  0  0  0  0  0  0
  120.7652  125.0561  139.8964 C   0  0  0  0  0  0  0  0  0  0  0  0
  121.5105  126.1723  139.6610 F   0  0  0  0  0  0  0  0  0  0  0  0
  121.0790  124.3373  141.0310 C   0  0  0  0  0  0  0  0  0  0  0  0
  122.3597  122.6607  143.9723 N   0  0  0  0  0  0  0  0  0  0  0  0
  123.2240  123.7328  143.6203 C   0  0  0  0  0  0  0  0  0  0  0  0
  124.4571  123.8185  144.4379 C   0  0  0  0  0  0  0  0  0  0  0  0
  124.4834  125.2031  145.0398 C   0  0  0  0  0  0  0  0  0  0  0  0
  124.5723  125.7162  142.7871 S   0  0  2  0  0  0  0  0  0  0  0  0
  123.1795  124.6903  142.7140 C   0  0  0  0  0  0  0  0  0  0  0  0
  122.1885  125.0329  141.6831 C   0  0  0  0  0  0  0  0  0  0  0  0
  122.3212  126.2032  141.2552 O   0  0  0  0  0  0  0  0  0  0  0  0
  126.0300  125.5021  142.5108 F   0  0  0  0  0  0  0  0  0  0  0  0
  1  2  2  0
  2  3  1  0
  3  4  1  0
  4  5  2  0
  5  6  1  0
  6  7  1  0
  6  8  2  0
  8  9  1  0
  9 10  1  0
  9 11  2  0
  2 12  1  0
 12 13  1  0
 13 14  1  0
 14 15  1  0
 15 16  1  0
 16 17  1  0
 17 18  1  0
 18 19  2  0
 16 20  1  6
 11  4  1  0
 18 11  1  0
 13 17  2  0
M  END
>  <docking_score>  (1) 
-7.4790000000000001

$$$$

     RDKit          3D

 20 22  0  0  0  0  0  0  0  0999 V2000
  135.7688  118.1239  132.1256 O   0  0  0  0  0  0  0  0  0  0  0  0
  136.5241  117.5598  132.9511 C   0  0  0  0  0  0  0  0  0  0  0  0
  136.4568  118.1750  134.2276 N   0  0  0  0  0  0  0  0  0  0  0  0
  136.9028  117.8880  135.5543 C   0  0  0  0  0  0  0  0  0  0  0  0
  136.4943  118.9314  136.3602 C   0  0  0  0  0  0  0  0  0  0  0  0
  136.7747  118.9501  137.7100 C   0  0  0  0  0  0  0  0  0  0  0  0
  136.2577  120.2736  138.7390 Cl  0  0  0  0  0  0  0  0  0  0  0  0
  137.4822  117.8739  138.2066 C   0  0  0  0  0  0  0  0  0  0  0  0
  137.8906  116.8312  137.4010 C   0  0  0  0  0  0  0  0  0  0  0  0
  138.5891  115.7682  137.8900 F   0  0  0  0  0  0  0  0  0  0  0  0
  137.6104  116.8119  136.0507 C   0  0  0  0  0  0  0  0  0  0  0  0
  137.2729  116.4544  132.4644 N   0  0  0  0  0  0  0  0  0  0  0  0
  138.1358  115.4420  132.9654 C   0  0  0  0  0  0  0  0  0  0  0  0
  138.7615  114.5987  131.9198 C   0  0  0  0  0  0  0  0  0  0  0  0
  138.3984  113.1686  132.2408 C   0  0  0  0  0  0  0  0  0  0  0  0
  139.6120  113.7333  134.1260 S   0  0  2  0  0  0  0  0  0  0  0  0
  138.5151  115.0721  134.1734 C   0  0  0  0  0  0  0  0  0  0  0  0
  138.1835  115.5776  135.5138 C   0  0  0  0  0  0  0  0  0  0  0  0
  138.4553  114.7567  136.4208 O   0  0  0  0  0  0  0  0  0  0  0  0
  141.0115  113.5605  133.6175 F   0  0  0  0  0  0  0  0  0  0  0  0
  1  2  2  0
  2  3  1  0
  3  4  1  0
  4  5  2  0
  5  6  1  0
  6  7  1  0
  6  8  2  0
  8  9  1  0
  9 10  1  0
  9 11  2  0
  2 12  1  0
 12 13  1  0
 13 14  1  0
 14 15  1  0
 15 16  1  0
 16 17  1  0
 17 18  1  0
 18 19  2  0
 16 20  1  6
 11  4  1  0
 18 11  1  0
 13 17  2  0
M  END
>  <docking_score>  (2) 
-7.1459999999999999

$$$$
