
     RDKit          3D

 26 29  0  0  0  0  0  0  0  0999 V2000
  135.7354  125.6902  138.2509 O   0  0  0  0  0  0  0  0  0  0  0  0
  134.5008  125.8780  138.2917 C   0  0  0  0  0  0  0  0  0  0  0  0
  133.8023  126.1783  137.0789 N   0  0  0  0  0  0  0  0  0  0  0  0
  134.5505  126.2466  135.8257 C   0  0  2  0  0  0  0  0  0  0  0  0
  135.7353  127.2131  135.8938 C   0  0  0  0  0  0  0  0  0  0  0  0
  134.5417  127.4040  134.9384 C   0  0  2  0  0  0  0  0  0  0  0  0
  133.6928  128.5717  135.1573 C   0  0  0  0  0  0  0  0  0  0  0  0
  134.1839  129.7609  135.6464 C   0  0  0  0  0  0  0  0  0  0  0  0
  133.3538  130.8332  135.8469 C   0  0  0  0  0  0  0  0  0  0  0  0
  132.0010  130.7821  135.5753 C   0  0  0  0  0  0  0  0  0  0  0  0
  131.4988  129.6060  135.0885 C   0  0  0  0  0  0  0  0  0  0  0  0
  132.3382  128.5291  134.8876 C   0  0  0  0  0  0  0  0  0  0  0  0
  133.8499  125.7834  139.5582 N   0  0  0  0  0  0  0  0  0  0  0  0
  134.7032  125.4592  140.7273 C   0  0  0  0  0  0  0  0  0  0  0  0
  134.7416  123.9490  140.7841 C   0  0  0  0  0  0  0  0  0  0  0  0
  136.1183  123.4281  140.8176 C   0  0  0  0  0  0  0  0  0  0  0  0
  136.2230  122.0741  140.1512 C   0  0  0  0  0  0  0  0  0  0  0  0
  137.2665  121.4291  140.4972 N   0  0  0  0  0  0  0  0  0  0  0  0
  137.5934  120.1800  140.0388 C   0  0  2  0  0  0  0  0  0  0  0  0
  137.3126  119.8441  138.6264 C   0  0  0  0  0  0  0  0  0  0  0  0
  136.9325  119.4008  137.2628 C   0  0  0  0  0  0  0  0  0  0  0  0
  135.9513  118.3430  137.2116 C   0  0  0  0  0  0  0  0  0  0  0  0
  135.4133  117.7962  138.4519 C   0  0  0  0  0  0  0  0  0  0  0  0
  135.9801  118.4353  139.6324 C   0  0  0  0  0  0  0  0  0  0  0  0
  136.6022  119.0888  139.0000 N   0  0  0  0  0  0  0  0  0  0  0  0
  136.5639  119.0931  140.8302 C   0  0  0  0  0  0  0  0  0  0  0  0
  1  2  2  0
  2  3  1  0
  4  3  1  1
  4  5  1  0
  5  6  1  0
  6  7  1  1
  7  8  2  0
  8  9  1  0
  9 10  2  0
 10 11  1  0
 11 12  2  0
  2 13  1  0
 13 14  1  0
 14 15  1  0
 15 16  1  0
 16 17  1  0
 17 18  2  3
 18 19  1  0
 19 20  1  0
 20 21  2  0
 21 22  1  0
 22 23  2  0
 23 24  1  0
 24 25  2  0
 19 26  1  1
  6  4  1  0
 12  7  1  0
 25 20  1  0
 26 24  1  0
M  END
>  <docking_score>  (1) 
-7.8529999999999998

$$$$

     RDKit          3D

 26 29  0  0  0  0  0  0  0  0999 V2000
  136.4737  122.6701  141.5731 O   0  0  0  0  0  0  0  0  0  0  0  0
  136.2173  122.5328  140.3580 C   0  0  0  0  0  0  0  0  0  0  0  0
  135.6742  123.6406  139.6321 N   0  0  0  0  0  0  0  0  0  0  0  0
  135.4448  124.9038  140.3295 C   0  0  2  0  0  0  0  0  0  0  0  0
  133.9645  125.2883  140.3894 C   0  0  0  0  0  0  0  0  0  0  0  0
  135.0293  126.1333  139.6639 C   0  0  2  0  0  0  0  0  0  0  0  0
  134.9091  126.2552  138.2139 C   0  0  0  0  0  0  0  0  0  0  0  0
  133.9648  125.5632  137.4899 C   0  0  0  0  0  0  0  0  0  0  0  0
  133.8885  125.6972  136.1278 C   0  0  0  0  0  0  0  0  0  0  0  0
  134.7402  126.5188  135.4166 C   0  0  0  0  0  0  0  0  0  0  0  0
  135.6842  127.2129  136.1233 C   0  0  0  0  0  0  0  0  0  0  0  0
  135.7572  127.0756  137.4947 C   0  0  0  0  0  0  0  0  0  0  0  0
  136.4811  121.2660  139.7562 N   0  0  0  0  0  0  0  0  0  0  0  0
  137.0502  120.2135  140.6329 C   0  0  0  0  0  0  0  0  0  0  0  0
  137.5024  119.1174  139.6950 C   0  0  0  0  0  0  0  0  0  0  0  0
  136.6411  119.0123  138.5055 C   0  0  0  0  0  0  0  0  0  0  0  0
  137.0881  117.8981  137.5850 C   0  0  0  0  0  0  0  0  0  0  0  0
  137.0144  118.2124  136.3520 N   0  0  0  0  0  0  0  0  0  0  0  0
  137.3616  117.3827  135.3183 C   0  0  2  0  0  0  0  0  0  0  0  0
  137.9962  117.9684  134.1180 C   0  0  0  0  0  0  0  0  0  0  0  0
  138.5083  118.5097  132.8353 C   0  0  0  0  0  0  0  0  0  0  0  0
  137.6367  118.3260  131.6991 C   0  0  0  0  0  0  0  0  0  0  0  0
  136.3570  117.6485  131.8725 C   0  0  0  0  0  0  0  0  0  0  0  0
  136.1326  117.2296  133.2500 C   0  0  0  0  0  0  0  0  0  0  0  0
  137.1056  117.6486  133.5530 N   0  0  0  0  0  0  0  0  0  0  0  0
  135.9130  116.8063  134.6574 C   0  0  0  0  0  0  0  0  0  0  0  0
  1  2  2  0
  2  3  1  0
  4  3  1  6
  4  5  1  0
  5  6  1  0
  6  7  1  6
  7  8  2  0
  8  9  1  0
  9 10  2  0
 10 11  1  0
 11 12  2  0
  2 13  1  0
 13 14  1  0
 14 15  1  0
 15 16  1  0
 16 17  1  0
 17 18  2  3
 18 19  1  0
 19 20  1  0
 20 21  2  0
 21 22  1  0
 22 23  2  0
 23 24  1  0
 24 25  2  0
 19 26  1  6
  6  4  1  0
 12  7  1  0
 25 20  1  0
 26 24  1  0
M  END
>  <docking_score>  (2) 
-7.7060000000000004

$$$$

     RDKit          3D

 26 29  0  0  0  0  0  0  0  0999 V2000
  135.2490  124.0111  138.7687 O   0  0  0  0  0  0  0  0  0  0  0  0
  134.3844  123.3777  139.4109 C   0  0  0  0  0  0  0  0  0  0  0  0
  133.0993  123.9723  139.6207 N   0  0  0  0  0  0  0  0  0  0  0  0
  132.8309  125.2985  139.0694 C   0  0  2  0  0  0  0  0  0  0  0  0
  133.2654  126.4293  140.0049 C   0  0  0  0  0  0  0  0  0  0  0  0
  131.8022  126.1965  139.5819 C   0  0  2  0  0  0  0  0  0  0  0  0
  130.8584  125.8150  140.6287 C   0  0  0  0  0  0  0  0  0  0  0  0
  130.2562  124.5779  140.6656 C   0  0  0  0  0  0  0  0  0  0  0  0
  129.3683  124.2593  141.6601 C   0  0  0  0  0  0  0  0  0  0  0  0
  129.0324  125.1462  142.6636 C   0  0  0  0  0  0  0  0  0  0  0  0
  129.6234  126.3801  142.6396 C   0  0  0  0  0  0  0  0  0  0  0  0
  130.5173  126.6965  141.6367 C   0  0  0  0  0  0  0  0  0  0  0  0
  134.7304  122.0846  139.9057 N   0  0  0  0  0  0  0  0  0  0  0  0
  136.0984  121.5964  139.6049 C   0  0  0  0  0  0  0  0  0  0  0  0
  135.9186  120.1645  139.1547 C   0  0  0  0  0  0  0  0  0  0  0  0
  136.8920  119.2567  139.7842 C   0  0  0  0  0  0  0  0  0  0  0  0
  137.4749  118.2793  138.7876 C   0  0  0  0  0  0  0  0  0  0  0  0
  137.4710  118.7252  137.5935 N   0  0  0  0  0  0  0  0  0  0  0  0
  137.9447  118.0371  136.5074 C   0  0  2  0  0  0  0  0  0  0  0  0
  137.2365  118.1705  135.2162 C   0  0  0  0  0  0  0  0  0  0  0  0
  136.4941  118.1536  133.9321 C   0  0  0  0  0  0  0  0  0  0  0  0
  135.9408  116.8735  133.5588 C   0  0  0  0  0  0  0  0  0  0  0  0
  136.1352  115.7207  134.4305 C   0  0  0  0  0  0  0  0  0  0  0  0
  136.9073  116.0493  135.6218 C   0  0  0  0  0  0  0  0  0  0  0  0
  136.9971  117.0975  135.2943 N   0  0  0  0  0  0  0  0  0  0  0  0
  137.6955  116.3942  136.8334 C   0  0  0  0  0  0  0  0  0  0  0  0
  1  2  2  0
  2  3  1  0
  4  3  1  1
  4  5  1  0
  5  6  1  0
  6  7  1  1
  7  8  2  0
  8  9  1  0
  9 10  2  0
 10 11  1  0
 11 12  2  0
  2 13  1  0
 13 14  1  0
 14 15  1  0
 15 16  1  0
 16 17  1  0
 17 18  2  3
 18 19  1  0
 19 20  1  0
 20 21  2  0
 21 22  1  0
 22 23  2  0
 23 24  1  0
 24 25  2  0
 19 26  1  1
  6  4  1  0
 12  7  1  0
 25 20  1  0
 26 24  1  0
M  END
>  <docking_score>  (3) 
-7.2430000000000003

$$$$
