
     RDKit          3D

 14 14  0  0  0  0  0  0  0  0999 V2000
  136.4068  117.7799  134.0450 C   0  0  0  0  0  0  0  0  0  0  0  0
  136.3639  116.9772  132.8748 O   0  0  0  0  0  0  0  0  0  0  0  0
  136.9153  117.3304  131.6506 C   0  0  0  0  0  0  0  0  0  0  0  0
  138.0341  118.0109  131.4542 C   0  0  0  0  0  0  0  0  0  0  0  0
  138.9417  118.5444  132.4659 C   0  0  0  0  0  0  0  0  0  0  0  0
  138.7886  118.4620  133.7915 C   0  0  0  0  0  0  0  0  0  0  0  0
  137.7693  117.8732  134.6437 C   0  0  2  0  0  0  0  0  0  0  0  0
  138.1401  116.5660  135.2631 C   0  0  0  0  0  0  0  0  0  0  0  0
  138.2674  116.7714  136.6904 N   0  0  0  0  0  0  0  0  0  0  0  0
  137.6697  118.0592  137.0797 C   0  0  0  0  0  0  0  0  0  0  0  0
  137.9010  118.1604  138.5760 C   0  0  0  0  0  0  0  0  0  0  0  0
  138.0682  119.5565  139.0577 C   0  0  0  0  0  0  0  0  0  0  0  0
  137.0400  120.0166  139.9167 N   0  0  0  0  0  0  0  0  0  0  0  0
  136.5984  119.2345  140.7235 O   0  0  0  0  0  0  0  0  0  0  0  0
  1  2  1  0
  2  3  1  0
  3  4  2  0
  4  5  1  0
  5  6  2  0
  6  7  1  0
  7  8  1  6
  8  9  1  0
  9 10  1  0
 10 11  1  0
 11 12  1  0
 12 13  1  0
 13 14  2  0
  7  1  1  0
M  END
>  <docking_score>  (1) 
-4.617

$$$$

     RDKit          3D

 14 14  0  0  0  0  0  0  0  0999 V2000
  136.6640  118.1513  134.3062 C   0  0  0  0  0  0  0  0  0  0  0  0
  135.8604  117.0058  134.0661 O   0  0  0  0  0  0  0  0  0  0  0  0
  136.0787  116.0829  133.0522 C   0  0  0  0  0  0  0  0  0  0  0  0
  137.2518  115.6739  132.5943 C   0  0  0  0  0  0  0  0  0  0  0  0
  138.5775  116.0914  133.0415 C   0  0  0  0  0  0  0  0  0  0  0  0
  138.8467  116.9945  133.9900 C   0  0  0  0  0  0  0  0  0  0  0  0
  138.0131  117.8193  134.8481 C   0  0  2  0  0  0  0  0  0  0  0  0
  137.8884  117.3420  136.2575 C   0  0  0  0  0  0  0  0  0  0  0  0
  137.9638  118.4978  137.1259 N   0  0  0  0  0  0  0  0  0  0  0  0
  137.5961  118.1308  138.5033 C   0  0  0  0  0  0  0  0  0  0  0  0
  138.1950  119.2221  139.3711 C   0  0  0  0  0  0  0  0  0  0  0  0
  137.1790  120.1143  139.9882 C   0  0  0  0  0  0  0  0  0  0  0  0
  137.7078  121.1343  140.8167 N   0  0  0  0  0  0  0  0  0  0  0  0
  137.2724  122.2508  140.6704 O   0  0  0  0  0  0  0  0  0  0  0  0
  1  2  1  0
  2  3  1  0
  3  4  2  0
  4  5  1  0
  5  6  2  0
  6  7  1  0
  7  8  1  1
  8  9  1  0
  9 10  1  0
 10 11  1  0
 11 12  1  0
 12 13  1  0
 13 14  2  0
  7  1  1  0
M  END
>  <docking_score>  (2) 
-4.4880000000000004

$$$$

     RDKit          3D

 14 14  0  0  0  0  0  0  0  0999 V2000
  142.3362  133.8841  134.1283 C   0  0  0  0  0  0  0  0  0  0  0  0
  141.0720  134.4063  133.7480 O   0  0  0  0  0  0  0  0  0  0  0  0
  139.9942  133.6419  133.3220 C   0  0  0  0  0  0  0  0  0  0  0  0
  139.6537  132.4406  133.7625 C   0  0  0  0  0  0  0  0  0  0  0  0
  140.3224  131.6449  134.7879 C   0  0  0  0  0  0  0  0  0  0  0  0
  141.4302  131.9820  135.4564 C   0  0  0  0  0  0  0  0  0  0  0  0
  142.3010  133.1449  135.4229 C   0  0  2  0  0  0  0  0  0  0  0  0
  142.1155  134.1071  136.5497 C   0  0  0  0  0  0  0  0  0  0  0  0
  143.1570  135.1081  136.4546 N   0  0  0  0  0  0  0  0  0  0  0  0
  143.0613  136.0576  137.5755 C   0  0  0  0  0  0  0  0  0  0  0  0
  142.0006  135.4749  138.4911 C   0  0  0  0  0  0  0  0  0  0  0  0
  142.0102  136.0590  139.8578 C   0  0  0  0  0  0  0  0  0  0  0  0
  143.2743  136.5229  140.2975 N   0  0  0  0  0  0  0  0  0  0  0  0
  143.3548  137.6786  140.6371 O   0  0  0  0  0  0  0  0  0  0  0  0
  1  2  1  0
  2  3  1  0
  3  4  2  0
  4  5  1  0
  5  6  2  0
  6  7  1  0
  7  8  1  1
  8  9  1  0
  9 10  1  0
 10 11  1  0
 11 12  1  0
 12 13  1  0
 13 14  2  0
  7  1  1  0
M  END
>  <docking_score>  (3) 
-4.4480000000000004

$$$$
