
     RDKit          3D

 25 28  0  0  0  0  0  0  0  0999 V2000
  143.0579  136.4345  139.4485 O   0  0  0  0  0  0  0  0  0  0  0  0
  143.6597  136.2483  140.5315 C   0  0  0  0  0  0  0  0  0  0  0  0
  144.9139  136.8797  140.7018 N   0  0  0  0  0  0  0  0  0  0  0  0
  145.4764  137.7110  139.6590 C   0  0  1  0  0  0  0  0  0  0  0  0
  145.7966  139.1380  140.1026 C   0  0  0  0  0  0  0  0  0  0  0  0
  146.9354  138.1544  139.8495 C   0  0  1  0  0  0  0  0  0  0  0  0
  147.6727  137.6353  141.0217 C   0  0  0  0  0  0  0  0  0  0  0  0
  147.8567  138.4068  142.1348 C   0  0  0  0  0  0  0  0  0  0  0  0
  148.5503  137.8859  143.2071 C   0  0  0  0  0  0  0  0  0  0  0  0
  149.0667  136.6124  143.1987 C   0  0  0  0  0  0  0  0  0  0  0  0
  148.8615  135.8529  142.0493 C   0  0  0  0  0  0  0  0  0  0  0  0
  148.1710  136.3576  140.9692 C   0  0  0  0  0  0  0  0  0  0  0  0
  143.0515  135.4206  141.5173 N   0  0  0  0  0  0  0  0  0  0  0  0
  141.7491  134.7913  141.2918 C   0  0  0  0  0  0  0  0  0  0  0  0
  141.3198  134.1563  142.5795 C   0  0  2  0  0  0  0  0  0  0  0  0
  142.0898  132.8982  142.8382 C   0  0  0  0  0  0  0  0  0  0  0  0
  141.2058  131.7142  142.7064 C   0  0  0  0  0  0  0  0  0  0  0  0
  141.0035  131.2204  141.5536 N   0  0  0  0  0  0  0  0  0  0  0  0
  141.6325  131.8190  140.4169 C   0  0  0  0  0  0  0  0  0  0  0  0
  140.7084  132.0461  139.3108 C   0  0  0  0  0  0  0  0  0  0  0  0
  139.5990  132.7104  139.2937 C   0  0  0  0  0  0  0  0  0  0  0  0
  138.9880  133.4082  140.3977 C   0  0  0  0  0  0  0  0  0  0  0  0
  137.9850  133.7680  141.2218 C   0  0  0  0  0  0  0  0  0  0  0  0
  139.3935  134.2869  141.3529 C   0  0  1  0  0  0  0  0  0  0  0  0
  139.9808  133.8634  142.5352 O   0  0  0  0  0  0  0  0  0  0  0  0
  1  2  2  0
  2  3  1  0
  4  3  1  1
  4  5  1  0
  5  6  1  0
  6  7  1  1
  7  8  2  0
  8  9  1  0
  9 10  2  0
 10 11  1  0
 11 12  2  0
  2 13  1  0
 13 14  1  0
 15 14  1  6
 15 16  1  0
 16 17  1  0
 17 18  2  3
 18 19  1  0
 19 20  1  0
 20 21  2  3
 21 22  1  0
 22 23  2  0
 23 24  1  0
 24 25  1  1
  6  4  1  0
 12  7  1  0
 25 15  1  0
 24 22  1  0
M  END
>  <docking_score>  (1) 
-7.7720000000000002

$$$$

     RDKit          3D

 25 28  0  0  0  0  0  0  0  0999 V2000
  139.9285  132.2924  139.6532 O   0  0  0  0  0  0  0  0  0  0  0  0
  141.1715  132.1591  139.5689 C   0  0  0  0  0  0  0  0  0  0  0  0
  141.9302  132.3225  140.7515 N   0  0  0  0  0  0  0  0  0  0  0  0
  141.2880  132.6314  142.0112 C   0  0  1  0  0  0  0  0  0  0  0  0
  142.2602  132.9554  143.1449 C   0  0  0  0  0  0  0  0  0  0  0  0
  141.4340  134.0748  142.5181 C   0  0  1  0  0  0  0  0  0  0  0  0
  142.1344  135.0483  141.6528 C   0  0  0  0  0  0  0  0  0  0  0  0
  141.5063  135.6136  140.5785 C   0  0  0  0  0  0  0  0  0  0  0  0
  142.1943  136.5170  139.7959 C   0  0  0  0  0  0  0  0  0  0  0  0
  143.4959  136.8727  140.0568 C   0  0  0  0  0  0  0  0  0  0  0  0
  144.1065  136.2784  141.1587 C   0  0  0  0  0  0  0  0  0  0  0  0
  143.4338  135.3741  141.9511 C   0  0  0  0  0  0  0  0  0  0  0  0
  141.7412  131.8537  138.3005 N   0  0  0  0  0  0  0  0  0  0  0  0
  140.9101  131.6927  137.1061 C   0  0  0  0  0  0  0  0  0  0  0  0
  141.8251  131.4778  135.9390 C   0  0  2  0  0  0  0  0  0  0  0  0
  143.0772  132.2861  136.0851 C   0  0  0  0  0  0  0  0  0  0  0  0
  143.1070  133.3798  135.0832 C   0  0  0  0  0  0  0  0  0  0  0  0
  142.5071  134.4694  135.3412 N   0  0  0  0  0  0  0  0  0  0  0  0
  141.8208  134.6109  136.5881 C   0  0  0  0  0  0  0  0  0  0  0  0
  140.4705  135.1425  136.4358 C   0  0  0  0  0  0  0  0  0  0  0  0
  139.4897  134.6946  135.7217 C   0  0  0  0  0  0  0  0  0  0  0  0
  139.4939  133.5260  134.8769 C   0  0  0  0  0  0  0  0  0  0  0  0
  139.2719  132.8218  133.7503 C   0  0  0  0  0  0  0  0  0  0  0  0
  139.8820  132.2280  134.9935 C   0  0  1  0  0  0  0  0  0  0  0  0
  141.1930  131.8336  134.7750 O   0  0  0  0  0  0  0  0  0  0  0  0
  1  2  2  0
  2  3  1  0
  4  3  1  6
  4  5  1  0
  5  6  1  0
  6  7  1  6
  7  8  2  0
  8  9  1  0
  9 10  2  0
 10 11  1  0
 11 12  2  0
  2 13  1  0
 13 14  1  0
 15 14  1  1
 15 16  1  0
 16 17  1  0
 17 18  2  3
 18 19  1  0
 19 20  1  0
 20 21  2  3
 21 22  1  0
 22 23  2  0
 23 24  1  0
 24 25  1  6
  6  4  1  0
 12  7  1  0
 25 15  1  0
 24 22  1  0
M  END
>  <docking_score>  (2) 
-7.6959999999999997

$$$$

     RDKit          3D

 25 28  0  0  0  0  0  0  0  0999 V2000
  128.4072  137.3430  139.7812 O   0  0  0  0  0  0  0  0  0  0  0  0
  129.5944  137.2526  139.3911 C   0  0  0  0  0  0  0  0  0  0  0  0
  130.0367  135.9932  138.9230 N   0  0  0  0  0  0  0  0  0  0  0  0
  129.1448  134.8537  138.8968 C   0  0  1  0  0  0  0  0  0  0  0  0
  128.5858  134.5300  137.5117 C   0  0  0  0  0  0  0  0  0  0  0  0
  129.6383  133.6156  138.1318 C   0  0  1  0  0  0  0  0  0  0  0  0
  131.0028  133.6481  137.5624 C   0  0  0  0  0  0  0  0  0  0  0  0
  131.2299  134.1412  136.3080 C   0  0  0  0  0  0  0  0  0  0  0  0
  132.5171  134.1538  135.8131 C   0  0  0  0  0  0  0  0  0  0  0  0
  133.5870  133.6863  136.5379 C   0  0  0  0  0  0  0  0  0  0  0  0
  133.3212  133.1908  137.8122 C   0  0  0  0  0  0  0  0  0  0  0  0
  132.0414  133.1709  138.3221 C   0  0  0  0  0  0  0  0  0  0  0  0
  130.4200  138.4113  139.4414 N   0  0  0  0  0  0  0  0  0  0  0  0
  129.9121  139.6931  139.9335 C   0  0  0  0  0  0  0  0  0  0  0  0
  130.8430  140.1716  141.0058 C   0  0  2  0  0  0  0  0  0  0  0  0
  130.4611  139.6041  142.3380 C   0  0  0  0  0  0  0  0  0  0  0  0
  129.9285  140.6704  143.2212 C   0  0  0  0  0  0  0  0  0  0  0  0
  128.7025  140.9907  143.1317 N   0  0  0  0  0  0  0  0  0  0  0  0
  127.8715  140.3155  142.1833 C   0  0  0  0  0  0  0  0  0  0  0  0
  127.0681  141.2307  141.3795 C   0  0  0  0  0  0  0  0  0  0  0  0
  127.4490  142.2194  140.6379 C   0  0  0  0  0  0  0  0  0  0  0  0
  128.8011  142.6705  140.4200 C   0  0  0  0  0  0  0  0  0  0  0  0
  129.7976  143.5725  140.3304 C   0  0  0  0  0  0  0  0  0  0  0  0
  129.9927  142.0953  140.1066 C   0  0  1  0  0  0  0  0  0  0  0  0
  130.8151  141.5410  141.0753 O   0  0  0  0  0  0  0  0  0  0  0  0
  1  2  2  0
  2  3  1  0
  4  3  1  6
  4  5  1  0
  5  6  1  0
  6  7  1  6
  7  8  2  0
  8  9  1  0
  9 10  2  0
 10 11  1  0
 11 12  2  0
  2 13  1  0
 13 14  1  0
 15 14  1  6
 15 16  1  0
 16 17  1  0
 17 18  2  3
 18 19  1  0
 19 20  1  0
 20 21  2  3
 21 22  1  0
 22 23  2  0
 23 24  1  0
 24 25  1  1
  6  4  1  0
 12  7  1  0
 25 15  1  0
 24 22  1  0
M  END
>  <docking_score>  (3) 
-7.0039999999999996

$$$$
