
     RDKit          3D

 11 11  0  0  0  0  0  0  0  0999 V2000
  123.5859  126.7953  141.3522 O   0  0  0  0  0  0  0  0  0  0  0  0
  122.4936  126.8112  141.9926 C   0  0  0  0  0  0  0  0  0  0  0  0
  122.2191  125.6970  142.8685 N   0  0  0  0  0  0  0  0  0  0  0  0
  121.4104  124.6475  142.3413 C   0  0  0  0  0  0  0  0  0  0  0  0
  121.4918  123.3551  142.6594 C   0  0  0  0  0  0  0  0  0  0  0  0
  122.3860  122.6726  143.5918 C   0  0  0  0  0  0  0  0  0  0  0  0
  122.1627  121.3864  143.8231 C   0  0  0  0  0  0  0  0  0  0  0  0
  122.9840  120.7570  144.6803 F   0  0  0  0  0  0  0  0  0  0  0  0
  122.7839  125.7505  144.1828 C   0  0  0  0  0  0  0  0  0  0  0  0
  123.6408  124.5823  144.5067 C   0  0  0  0  0  0  0  0  0  0  0  0
  123.4759  123.3057  144.2616 N   0  0  0  0  0  0  0  0  0  0  0  0
  1  2  2  0
  2  3  1  0
  3  4  1  0
  4  5  2  0
  5  6  1  0
  6  7  2  3
  7  8  1  0
  3  9  1  0
  9 10  1  0
 10 11  2  0
 11  6  1  0
M  END
>  <docking_score>  (1) 
-4.4029999999999996

$$$$
