
     RDKit          3D

 11 11  0  0  0  0  0  0  0  0999 V2000
  121.3434  127.9187  139.9447 O   0  0  0  0  0  0  0  0  0  0  0  0
  121.1149  126.9438  140.6870 C   0  0  0  0  0  0  0  0  0  0  0  0
  122.1325  126.1942  141.3381 N   0  0  0  0  0  0  0  0  0  0  0  0
  121.6072  125.3499  142.3819 C   0  0  0  0  0  0  0  0  0  0  0  0
  122.3160  124.6795  143.3071 C   0  0  0  0  0  0  0  0  0  0  0  0
  123.7620  124.6478  143.4717 C   0  0  0  0  0  0  0  0  0  0  0  0
  124.2455  123.6165  144.1350 C   0  0  0  0  0  0  0  0  0  0  0  0
  123.3813  122.6939  144.5979 F   0  0  0  0  0  0  0  0  0  0  0  0
  123.4574  126.3867  140.8764 C   0  0  0  0  0  0  0  0  0  0  0  0
  124.5025  126.3303  141.8927 C   0  0  0  0  0  0  0  0  0  0  0  0
  124.6673  125.6277  142.9788 N   0  0  0  0  0  0  0  0  0  0  0  0
  1  2  2  0
  2  3  1  0
  3  4  1  0
  4  5  2  0
  5  6  1  0
  6  7  2  3
  7  8  1  0
  3  9  1  0
  9 10  1  0
 10 11  2  0
 11  6  1  0
M  END
>  <docking_score>  (1) 
-4.1799999999999997

$$$$

     RDKit          3D

 11 11  0  0  0  0  0  0  0  0999 V2000
  146.4672  111.4756  165.9991 O   0  0  0  0  0  0  0  0  0  0  0  0
  146.8953  112.6430  166.0852 C   0  0  0  0  0  0  0  0  0  0  0  0
  146.2632  113.7606  165.4749 N   0  0  0  0  0  0  0  0  0  0  0  0
  146.9191  114.1618  164.2554 C   0  0  0  0  0  0  0  0  0  0  0  0
  146.6977  115.2888  163.5562 C   0  0  0  0  0  0  0  0  0  0  0  0
  145.7561  116.3563  163.8609 C   0  0  0  0  0  0  0  0  0  0  0  0
  145.4001  117.1195  162.8469 C   0  0  0  0  0  0  0  0  0  0  0  0
  145.9250  116.8564  161.6356 F   0  0  0  0  0  0  0  0  0  0  0  0
  145.1273  114.2877  166.1365 C   0  0  0  0  0  0  0  0  0  0  0  0
  144.9604  115.7352  166.0640 C   0  0  0  0  0  0  0  0  0  0  0  0
  145.2069  116.6266  165.1447 N   0  0  0  0  0  0  0  0  0  0  0  0
  1  2  2  0
  2  3  1  0
  3  4  1  0
  4  5  2  0
  5  6  1  0
  6  7  2  3
  7  8  1  0
  3  9  1  0
  9 10  1  0
 10 11  2  0
 11  6  1  0
M  END
>  <docking_score>  (2) 
-1.95

$$$$

     RDKit          3D

 11 11  0  0  0  0  0  0  0  0999 V2000
  147.1029  116.9296  166.9001 O   0  0  0  0  0  0  0  0  0  0  0  0
  145.9734  117.4047  167.1283 C   0  0  0  0  0  0  0  0  0  0  0  0
  144.7615  116.6940  166.9106 N   0  0  0  0  0  0  0  0  0  0  0  0
  144.9761  115.4422  166.2284 C   0  0  0  0  0  0  0  0  0  0  0  0
  144.0334  114.6420  165.7004 C   0  0  0  0  0  0  0  0  0  0  0  0
  142.5923  114.8472  165.6927 C   0  0  0  0  0  0  0  0  0  0  0  0
  141.8558  113.7672  165.5236 C   0  0  0  0  0  0  0  0  0  0  0  0
  142.4822  112.5851  165.3744 F   0  0  0  0  0  0  0  0  0  0  0  0
  143.5734  117.3047  167.3811 C   0  0  0  0  0  0  0  0  0  0  0  0
  142.3826  117.0988  166.5640 C   0  0  0  0  0  0  0  0  0  0  0  0
  141.9394  116.1008  165.8511 N   0  0  0  0  0  0  0  0  0  0  0  0
  1  2  2  0
  2  3  1  0
  3  4  1  0
  4  5  2  0
  5  6  1  0
  6  7  2  3
  7  8  1  0
  3  9  1  0
  9 10  1  0
 10 11  2  0
 11  6  1  0
M  END
>  <docking_score>  (3) 
-1.5840000000000001

$$$$
