
     RDKit          3D

 25 29  0  0  0  0  0  0  0  0999 V2000
  136.4745  125.7101  137.6057 O   0  0  0  0  0  0  0  0  0  0  0  0
  135.4152  125.2383  138.1174 C   0  0  0  0  0  0  0  0  0  0  0  0
  134.3393  126.1663  138.0448 N   0  0  0  0  0  0  0  0  0  0  0  0
  132.9890  126.1916  138.4898 C   0  0  0  0  0  0  0  0  0  0  0  0
  132.3665  127.3070  137.9078 C   0  0  0  0  0  0  0  0  0  0  0  0
  131.0385  127.5499  138.1768 C   0  0  0  0  0  0  0  0  0  0  0  0
  130.1931  128.9257  137.4827 Cl  0  0  0  0  0  0  0  0  0  0  0  0
  130.3170  126.7062  139.0129 C   0  0  0  0  0  0  0  0  0  0  0  0
  130.9373  125.5985  139.5901 C   0  0  0  0  0  0  0  0  0  0  0  0
  130.1211  124.4719  140.6411 Cl  0  0  0  0  0  0  0  0  0  0  0  0
  132.2537  125.3762  139.3106 C   0  0  0  0  0  0  0  0  0  0  0  0
  135.6469  123.8992  138.6122 N   0  0  0  0  0  0  0  0  0  0  0  0
  134.8816  123.0194  139.3713 C   0  0  0  0  0  0  0  0  0  0  0  0
  135.4331  121.6838  139.7096 C   0  0  1  0  0  0  0  0  0  0  0  0
  134.1256  121.2552  140.0223 C   0  0  2  0  0  0  0  0  0  0  0  0
  133.2947  121.8495  140.6609 C   0  0  0  0  0  0  0  0  0  0  0  0
  133.6407  123.1700  139.9310 C   0  0  0  0  0  0  0  0  0  0  0  0
  132.6206  124.1460  140.0246 C   0  0  0  0  0  0  0  0  0  0  0  0
  131.8082  123.8782  140.9843 O   0  0  0  0  0  0  0  0  0  0  0  0
  134.0872  120.3950  140.5981 C   0  0  0  0  0  0  0  0  0  0  0  0
  135.2718  120.3328  139.3004 N   0  0  0  0  0  0  0  0  0  0  0  0
  135.4449  119.1570  138.6035 C   0  0  0  0  0  0  0  0  0  0  0  0
  136.5377  119.1924  137.5810 C   0  0  0  0  0  0  0  0  0  0  0  0
  136.7449  118.1304  136.8697 N   0  0  0  0  0  3  0  0  0  0  0  0
  138.0067  118.1592  135.6836 Cl  0  0  0  0  0  0  0  0  0  0  0  0
  1  2  2  0
  2  3  1  0
  3  4  1  0
  4  5  2  0
  5  6  1  0
  6  7  1  0
  6  8  2  0
  8  9  1  0
  9 10  1  0
  9 11  2  0
  2 12  1  0
 12 13  1  0
 13 14  1  0
 14 15  1  0
 15 16  1  1
 16 17  1  0
 17 18  1  0
 18 19  2  0
 15 20  1  0
 20 21  1  0
 21 22  1  0
 22 23  1  0
 23 24  2  3
 24 25  1  0
 11  4  1  0
 18 11  1  0
 13 17  2  0
 14 21  1  6
 16 20  2  0
M  CHG  1  24   1
M  RAD  1  24   2
M  END
>  <docking_score>  (1) 
-7.7830000000000004

$$$$

     RDKit          3D

 25 29  0  0  0  0  0  0  0  0999 V2000
  139.1852  131.4984  140.3096 O   0  0  0  0  0  0  0  0  0  0  0  0
  138.9453  131.6872  139.0794 C   0  0  0  0  0  0  0  0  0  0  0  0
  140.1363  131.9514  138.3474 N   0  0  0  0  0  0  0  0  0  0  0  0
  140.4476  132.2753  136.9983 C   0  0  0  0  0  0  0  0  0  0  0  0
  141.8406  132.1910  136.8475 C   0  0  0  0  0  0  0  0  0  0  0  0
  142.3987  132.4515  135.6165 C   0  0  0  0  0  0  0  0  0  0  0  0
  144.1343  132.3639  135.3529 Cl  0  0  0  0  0  0  0  0  0  0  0  0
  141.5998  132.7943  134.5322 C   0  0  0  0  0  0  0  0  0  0  0  0
  140.2159  132.8776  134.6841 C   0  0  0  0  0  0  0  0  0  0  0  0
  139.1239  133.2859  133.3876 Cl  0  0  0  0  0  0  0  0  0  0  0  0
  139.6834  132.6157  135.9123 C   0  0  0  0  0  0  0  0  0  0  0  0
  137.5276  131.5714  138.8182 N   0  0  0  0  0  0  0  0  0  0  0  0
  136.7422  131.8265  137.6984 C   0  0  0  0  0  0  0  0  0  0  0  0
  135.2786  131.5920  137.7697 C   0  0  1  0  0  0  0  0  0  0  0  0
  135.2371  131.6042  136.3594 C   0  0  2  0  0  0  0  0  0  0  0  0
  135.7843  132.3811  135.6187 C   0  0  0  0  0  0  0  0  0  0  0  0
  137.0794  132.3146  136.4639 C   0  0  0  0  0  0  0  0  0  0  0  0
  138.2285  132.7528  135.7642 C   0  0  0  0  0  0  0  0  0  0  0  0
  137.9066  133.4488  134.7323 O   0  0  0  0  0  0  0  0  0  0  0  0
  134.2909  131.7500  135.9637 C   0  0  0  0  0  0  0  0  0  0  0  0
  134.3329  130.6317  137.3198 N   0  0  0  0  0  0  0  0  0  0  0  0
  133.5343  129.5095  137.2912 C   0  0  0  0  0  0  0  0  0  0  0  0
  134.2724  128.2229  137.0888 C   0  0  0  0  0  0  0  0  0  0  0  0
  134.3051  127.7171  135.8973 N   0  0  0  0  0  3  0  0  0  0  0  0
  135.1559  126.2288  135.6506 Cl  0  0  0  0  0  0  0  0  0  0  0  0
  1  2  2  0
  2  3  1  0
  3  4  1  0
  4  5  2  0
  5  6  1  0
  6  7  1  0
  6  8  2  0
  8  9  1  0
  9 10  1  0
  9 11  2  0
  2 12  1  0
 12 13  1  0
 13 14  1  0
 14 15  1  0
 15 16  1  1
 16 17  1  0
 17 18  1  0
 18 19  2  0
 15 20  1  0
 20 21  1  0
 21 22  1  0
 22 23  1  0
 23 24  2  3
 24 25  1  0
 11  4  1  0
 18 11  1  0
 13 17  2  0
 14 21  1  6
 16 20  2  0
M  CHG  1  24   1
M  RAD  1  24   2
M  END
>  <docking_score>  (2) 
-7.6429999999999998

$$$$
