
     RDKit          3D

 29 32  0  0  0  0  0  0  0  0999 V2000
  135.6429  125.9519  137.5341 O   0  0  0  0  0  0  0  0  0  0  0  0
  134.7722  125.9165  138.4207 C   0  0  0  0  0  0  0  0  0  0  0  0
  134.7025  124.8837  139.4125 N   0  0  0  0  0  0  0  0  0  0  0  0
  135.7012  123.8039  139.3919 C   0  0  1  0  0  0  0  0  0  0  0  0
  136.7121  123.8362  140.5620 C   0  0  0  0  0  0  0  0  0  0  0  0
  135.5721  122.8583  140.5913 C   0  0  2  0  0  0  0  0  0  0  0  0
  135.9268  121.4579  140.2469 C   0  0  0  0  0  0  0  0  0  0  0  0
  134.9983  120.6015  139.7104 C   0  0  0  0  0  0  0  0  0  0  0  0
  135.3246  119.2892  139.3832 C   0  0  0  0  0  0  0  0  0  0  0  0
  136.6061  118.8350  139.6015 C   0  0  0  0  0  0  0  0  0  0  0  0
  137.5674  119.6645  140.1388 C   0  0  0  0  0  0  0  0  0  0  0  0
  137.2027  120.9719  140.4534 C   0  0  0  0  0  0  0  0  0  0  0  0
  133.8042  126.9917  138.4099 N   0  0  0  0  0  0  0  0  0  0  0  0
  133.9209  128.0292  137.3624 C   0  0  0  0  0  0  0  0  0  0  0  0
  133.1174  127.6626  136.1646 C   0  0  1  0  0  0  0  0  0  0  0  0
  131.9780  128.5757  135.8496 C   0  0  1  0  0  0  0  0  0  0  0  0
  132.1851  129.9270  136.4067 C   0  0  0  0  0  0  0  0  0  0  0  0
  132.7085  130.9779  135.7593 N   0  0  0  0  0  0  0  0  0  0  0  0
  132.7284  132.0182  136.5984 C   0  0  0  0  0  0  0  0  0  0  0  0
  133.2102  133.3599  136.2348 C   0  0  0  0  0  0  0  0  0  0  0  0
  134.4842  133.6331  136.4084 C   0  0  0  0  0  0  0  0  0  0  0  0
  135.3710  132.6349  136.9456 C   0  0  0  0  0  0  0  0  0  0  0  0
  136.5691  132.4427  136.4477 C   0  0  0  0  0  0  0  0  0  0  0  0
  137.3414  131.3810  137.1191 C   0  0  0  0  0  0  0  0  0  0  0  0
  137.9464  130.5567  137.6435 N   0  0  0  0  0  0  0  0  0  0  0  0
  132.2195  131.5960  137.7507 N   0  0  0  0  0  0  0  0  0  0  0  0
  131.9013  130.3460  137.6145 O   0  0  0  0  0  0  0  0  0  0  0  0
  132.3647  128.4844  134.3749 C   0  0  0  0  0  0  0  0  0  0  0  0
  133.7446  128.0647  134.8304 C   0  0  0  0  0  0  0  0  0  0  0  0
  1  2  2  0
  2  3  1  0
  4  3  1  1
  4  5  1  0
  5  6  1  0
  6  7  1  6
  7  8  2  0
  8  9  1  0
  9 10  2  0
 10 11  1  0
 11 12  2  0
  2 13  1  0
 13 14  1  0
 15 14  1  1
 15 16  1  0
 16 17  1  1
 17 18  2  0
 18 19  1  0
 19 20  1  0
 20 21  2  3
 21 22  1  0
 22 23  2  3
 23 24  1  0
 24 25  3  0
 19 26  2  0
 26 27  1  0
 16 28  1  0
 28 29  1  0
  6  4  1  0
 12  7  1  0
 29 15  1  0
 27 17  1  0
M  END
>  <docking_score>  (1) 
-7.6740000000000004

$$$$

     RDKit          3D

 29 32  0  0  0  0  0  0  0  0999 V2000
  136.1634  120.3937  137.9854 O   0  0  0  0  0  0  0  0  0  0  0  0
  136.7025  120.0058  139.0361 C   0  0  0  0  0  0  0  0  0  0  0  0
  137.6351  118.9179  139.0854 N   0  0  0  0  0  0  0  0  0  0  0  0
  137.9788  118.2138  137.8406 C   0  0  1  0  0  0  0  0  0  0  0  0
  138.2583  116.7020  138.0092 C   0  0  0  0  0  0  0  0  0  0  0  0
  136.9384  117.1565  137.4545 C   0  0  2  0  0  0  0  0  0  0  0  0
  136.7876  117.0238  135.9830 C   0  0  0  0  0  0  0  0  0  0  0  0
  136.8850  115.8016  135.3664 C   0  0  0  0  0  0  0  0  0  0  0  0
  136.7423  115.6699  133.9888 C   0  0  0  0  0  0  0  0  0  0  0  0
  136.4988  116.7881  133.2229 C   0  0  0  0  0  0  0  0  0  0  0  0
  136.3943  118.0336  133.8047 C   0  0  0  0  0  0  0  0  0  0  0  0
  136.5428  118.1253  135.1870 C   0  0  0  0  0  0  0  0  0  0  0  0
  136.3397  120.7180  140.2421 N   0  0  0  0  0  0  0  0  0  0  0  0
  135.3708  121.8302  140.1344 C   0  0  0  0  0  0  0  0  0  0  0  0
  136.0761  123.1372  140.0387 C   0  0  1  0  0  0  0  0  0  0  0  0
  135.2422  124.2862  139.5745 C   0  0  1  0  0  0  0  0  0  0  0  0
  133.8057  124.0633  139.8313 C   0  0  0  0  0  0  0  0  0  0  0  0
  133.1139  124.5045  140.8916 N   0  0  0  0  0  0  0  0  0  0  0  0
  131.8463  124.1008  140.7611 C   0  0  0  0  0  0  0  0  0  0  0  0
  130.7780  124.4193  141.7212 C   0  0  0  0  0  0  0  0  0  0  0  0
  129.9390  125.3859  141.4223 C   0  0  0  0  0  0  0  0  0  0  0  0
  130.0784  126.1074  140.1847 C   0  0  0  0  0  0  0  0  0  0  0  0
  130.4880  127.3531  140.1596 C   0  0  0  0  0  0  0  0  0  0  0  0
  130.5725  127.9363  138.8079 C   0  0  0  0  0  0  0  0  0  0  0  0
  130.6429  128.3914  137.7551 N   0  0  0  0  0  0  0  0  0  0  0  0
  131.7732  123.4159  139.6250 N   0  0  0  0  0  0  0  0  0  0  0  0
  132.9528  123.4062  139.0860 O   0  0  0  0  0  0  0  0  0  0  0  0
  135.9027  125.1478  140.6488 C   0  0  0  0  0  0  0  0  0  0  0  0
  136.2500  123.8651  141.3710 C   0  0  0  0  0  0  0  0  0  0  0  0
  1  2  2  0
  2  3  1  0
  4  3  1  1
  4  5  1  0
  5  6  1  0
  6  7  1  6
  7  8  2  0
  8  9  1  0
  9 10  2  0
 10 11  1  0
 11 12  2  0
  2 13  1  0
 13 14  1  0
 15 14  1  1
 15 16  1  0
 16 17  1  1
 17 18  2  0
 18 19  1  0
 19 20  1  0
 20 21  2  3
 21 22  1  0
 22 23  2  3
 23 24  1  0
 24 25  3  0
 19 26  2  0
 26 27  1  0
 16 28  1  0
 28 29  1  0
  6  4  1  0
 12  7  1  0
 29 15  1  0
 27 17  1  0
M  END
>  <docking_score>  (2) 
-7.6210000000000004

$$$$

     RDKit          3D

 29 32  0  0  0  0  0  0  0  0999 V2000
  131.7427  128.9501  139.0223 O   0  0  0  0  0  0  0  0  0  0  0  0
  130.7825  128.5831  138.3234 C   0  0  0  0  0  0  0  0  0  0  0  0
  130.6154  128.9695  136.9529 N   0  0  0  0  0  0  0  0  0  0  0  0
  131.6192  129.8454  136.3294 C   0  0  1  0  0  0  0  0  0  0  0  0
  131.2827  130.2893  134.8866 C   0  0  0  0  0  0  0  0  0  0  0  0
  131.0734  131.2453  136.0262 C   0  0  2  0  0  0  0  0  0  0  0  0
  132.1100  132.2989  136.1707 C   0  0  0  0  0  0  0  0  0  0  0  0
  131.8970  133.5731  135.7075 C   0  0  0  0  0  0  0  0  0  0  0  0
  132.8628  134.5654  135.8419 C   0  0  0  0  0  0  0  0  0  0  0  0
  134.0609  134.2668  136.4517 C   0  0  0  0  0  0  0  0  0  0  0  0
  134.3130  132.9986  136.9300 C   0  0  0  0  0  0  0  0  0  0  0  0
  133.3215  132.0319  136.7772 C   0  0  0  0  0  0  0  0  0  0  0  0
  129.8125  127.7252  138.9686 N   0  0  0  0  0  0  0  0  0  0  0  0
  130.0323  127.3602  140.3849 C   0  0  0  0  0  0  0  0  0  0  0  0
  129.3128  126.1022  140.7235 C   0  0  1  0  0  0  0  0  0  0  0  0
  130.1424  124.8603  140.7021 C   0  0  1  0  0  0  0  0  0  0  0  0
  131.5753  125.1518  140.9049 C   0  0  0  0  0  0  0  0  0  0  0  0
  132.5037  125.2627  139.9440 N   0  0  0  0  0  0  0  0  0  0  0  0
  133.6767  125.5329  140.5252 C   0  0  0  0  0  0  0  0  0  0  0  0
  134.9302  125.7516  139.7867 C   0  0  0  0  0  0  0  0  0  0  0  0
  135.6398  124.7014  139.4382 C   0  0  0  0  0  0  0  0  0  0  0  0
  135.1897  123.3783  139.7819 C   0  0  0  0  0  0  0  0  0  0  0  0
  135.6949  122.3119  139.2092 C   0  0  0  0  0  0  0  0  0  0  0  0
  135.1176  121.0396  139.6809 C   0  0  0  0  0  0  0  0  0  0  0  0
  134.6720  120.0468  140.0501 N   0  0  0  0  0  0  0  0  0  0  0  0
  133.4574  125.5836  141.8345 N   0  0  0  0  0  0  0  0  0  0  0  0
  132.1974  125.3541  142.0393 O   0  0  0  0  0  0  0  0  0  0  0  0
  129.4462  124.4210  141.9886 C   0  0  0  0  0  0  0  0  0  0  0  0
  129.0986  125.8748  142.2193 C   0  0  0  0  0  0  0  0  0  0  0  0
  1  2  2  0
  2  3  1  0
  4  3  1  1
  4  5  1  0
  5  6  1  0
  6  7  1  6
  7  8  2  0
  8  9  1  0
  9 10  2  0
 10 11  1  0
 11 12  2  0
  2 13  1  0
 13 14  1  0
 15 14  1  1
 15 16  1  0
 16 17  1  1
 17 18  2  0
 18 19  1  0
 19 20  1  0
 20 21  2  3
 21 22  1  0
 22 23  2  3
 23 24  1  0
 24 25  3  0
 19 26  2  0
 26 27  1  0
 16 28  1  0
 28 29  1  0
  6  4  1  0
 12  7  1  0
 29 15  1  0
 27 17  1  0
M  END
>  <docking_score>  (3) 
-7.3140000000000001

$$$$
