
     RDKit          3D

 29 32  0  0  0  0  0  0  0  0999 V2000
  141.5998  136.5927  140.8490 O   0  0  0  0  0  0  0  0  0  0  0  0
  141.3409  135.4771  140.3102 C   0  0  0  0  0  0  0  0  0  0  0  0
  140.4733  134.4713  140.9391 C   0  0  0  0  0  0  0  0  0  0  0  0
  139.7690  134.4252  142.1375 C   0  0  0  0  0  0  0  0  0  0  0  0
  139.0273  133.3122  142.4522 C   0  0  0  0  0  0  0  0  0  0  0  0
  138.9655  132.2456  141.6119 C   0  0  0  0  0  0  0  0  0  0  0  0
  139.6669  132.2915  140.4182 C   0  0  0  0  0  0  0  0  0  0  0  0
  140.4221  133.4128  140.0870 C   0  0  0  0  0  0  0  0  0  0  0  0
  141.2371  133.6480  138.8700 C   0  0  2  0  0  0  0  0  0  0  0  0
  141.7940  134.9766  139.0680 N   0  0  0  0  0  0  0  0  0  0  0  0
  142.6611  135.5674  138.0526 C   0  0  0  0  0  0  0  0  0  0  0  0
  141.9914  135.3466  136.6890 C   0  0  0  0  0  0  0  0  0  0  0  0
  140.5781  134.8763  136.8931 C   0  0  0  0  0  0  0  0  0  0  0  0
  140.4579  133.6888  137.6724 N   0  0  0  0  0  0  0  0  0  0  0  0
  140.3267  132.4689  136.9566 C   0  0  1  0  0  0  0  0  0  0  0  0
  138.9141  132.0527  136.8746 C   0  0  0  0  0  0  0  0  0  0  0  0
  138.6468  130.9546  137.7200 O   0  0  0  0  0  0  0  0  0  0  0  0
  137.8672  132.4734  136.1984 C   0  0  0  0  0  0  0  0  0  0  0  0
  137.7030  133.5173  135.2664 O   0  0  0  0  0  0  0  0  0  0  0  0
  138.4245  133.9247  134.1268 C   0  0  0  0  0  0  0  0  0  0  0  0
  139.6994  133.6487  133.8188 C   0  0  0  0  0  0  0  0  0  0  0  0
  140.7994  132.9055  134.4176 C   0  0  0  0  0  0  0  0  0  0  0  0
  141.0217  132.4578  135.6395 C   0  0  0  0  0  0  0  0  0  0  0  0
  142.3224  131.7317  135.7795 C   0  0  0  0  0  0  0  0  0  0  0  0
  143.3702  132.5210  135.0610 C   0  0  0  0  0  0  0  0  0  0  0  0
  144.7613  132.0045  135.2109 C   0  0  0  0  0  0  0  0  0  0  0  0
  145.6821  132.4213  134.1305 C   0  0  0  0  0  0  0  0  0  0  0  0
  146.1209  133.6735  134.1128 C   0  0  0  0  0  0  0  0  0  0  0  0
  145.7588  134.5915  135.0482 F   0  0  0  0  0  0  0  0  0  0  0  0
  1  2  2  0
  2  3  1  0
  3  4  2  0
  4  5  1  0
  5  6  2  0
  6  7  1  0
  7  8  2  0
  8  9  1  0
  9 10  1  0
 10 11  1  0
 11 12  1  0
 12 13  1  0
 13 14  1  0
 15 14  1  6
 15 16  1  0
 16 17  1  0
 16 18  2  3
 18 19  1  0
 19 20  1  0
 20 21  2  3
 21 22  1  0
 22 23  2  3
 23 24  1  0
 24 25  1  0
 25 26  1  0
 26 27  1  0
 27 28  2  3
 28 29  1  0
 10  2  1  0
  8  3  1  0
  9 14  1  6
 23 15  1  0
M  END
>  <docking_score>  (1) 
-7.5149999999999997

$$$$

     RDKit          3D

 29 32  0  0  0  0  0  0  0  0999 V2000
  128.9686  132.0648  144.4234 O   0  0  0  0  0  0  0  0  0  0  0  0
  129.1810  133.0604  143.6714 C   0  0  0  0  0  0  0  0  0  0  0  0
  129.8349  134.2894  144.1427 C   0  0  0  0  0  0  0  0  0  0  0  0
  130.3492  134.6931  145.3702 C   0  0  0  0  0  0  0  0  0  0  0  0
  130.9131  135.9395  145.4984 C   0  0  0  0  0  0  0  0  0  0  0  0
  130.9805  136.7946  144.4440 C   0  0  0  0  0  0  0  0  0  0  0  0
  130.4684  136.3924  143.2214 C   0  0  0  0  0  0  0  0  0  0  0  0
  129.8944  135.1326  143.0775 C   0  0  0  0  0  0  0  0  0  0  0  0
  129.2942  134.5267  141.8637 C   0  0  2  0  0  0  0  0  0  0  0  0
  128.8611  133.2097  142.3023 N   0  0  0  0  0  0  0  0  0  0  0  0
  128.2189  132.2973  141.3606 C   0  0  0  0  0  0  0  0  0  0  0  0
  129.0512  132.3049  140.0706 C   0  0  0  0  0  0  0  0  0  0  0  0
  130.3610  132.9989  140.3213 C   0  0  0  0  0  0  0  0  0  0  0  0
  130.2384  134.3331  140.8082 N   0  0  0  0  0  0  0  0  0  0  0  0
  130.3394  135.3730  139.8459 C   0  0  1  0  0  0  0  0  0  0  0  0
  131.6908  135.4193  139.2567 C   0  0  0  0  0  0  0  0  0  0  0  0
  132.4261  136.5266  139.7310 O   0  0  0  0  0  0  0  0  0  0  0  0
  132.3493  134.6678  138.4012 C   0  0  0  0  0  0  0  0  0  0  0  0
  131.9925  133.4960  137.7049 O   0  0  0  0  0  0  0  0  0  0  0  0
  130.8648  133.1209  136.9481 C   0  0  0  0  0  0  0  0  0  0  0  0
  129.6347  133.6517  136.9874 C   0  0  0  0  0  0  0  0  0  0  0  0
  128.9600  134.7149  137.7189 C   0  0  0  0  0  0  0  0  0  0  0  0
  129.2525  135.3686  138.8279 C   0  0  0  0  0  0  0  0  0  0  0  0
  128.2335  136.4002  139.1967 C   0  0  0  0  0  0  0  0  0  0  0  0
  128.8405  137.7485  138.9715 C   0  0  0  0  0  0  0  0  0  0  0  0
  128.9474  138.6027  140.1895 C   0  0  0  0  0  0  0  0  0  0  0  0
  130.0409  139.5977  140.1376 C   0  0  0  0  0  0  0  0  0  0  0  0
  130.5206  140.0798  141.2771 C   0  0  0  0  0  0  0  0  0  0  0  0
  130.0478  139.6967  142.4930 F   0  0  0  0  0  0  0  0  0  0  0  0
  1  2  2  0
  2  3  1  0
  3  4  2  0
  4  5  1  0
  5  6  2  0
  6  7  1  0
  7  8  2  0
  8  9  1  0
  9 10  1  0
 10 11  1  0
 11 12  1  0
 12 13  1  0
 13 14  1  0
 15 14  1  6
 15 16  1  0
 16 17  1  0
 16 18  2  3
 18 19  1  0
 19 20  1  0
 20 21  2  3
 21 22  1  0
 22 23  2  3
 23 24  1  0
 24 25  1  0
 25 26  1  0
 26 27  1  0
 27 28  2  3
 28 29  1  0
 10  2  1  0
  8  3  1  0
  9 14  1  6
 23 15  1  0
M  END
>  <docking_score>  (2) 
-7.3250000000000002

$$$$

     RDKit          3D

 29 32  0  0  0  0  0  0  0  0999 V2000
  134.8759  133.2846  139.6437 O   0  0  0  0  0  0  0  0  0  0  0  0
  134.1020  132.5523  138.9606 C   0  0  0  0  0  0  0  0  0  0  0  0
  133.4354  133.0212  137.7376 C   0  0  0  0  0  0  0  0  0  0  0  0
  133.4373  134.2275  137.0454 C   0  0  0  0  0  0  0  0  0  0  0  0
  132.6884  134.3601  135.9010 C   0  0  0  0  0  0  0  0  0  0  0  0
  131.9391  133.3305  135.4257 C   0  0  0  0  0  0  0  0  0  0  0  0
  131.9373  132.1290  136.1151 C   0  0  0  0  0  0  0  0  0  0  0  0
  132.6913  131.9810  137.2757 C   0  0  0  0  0  0  0  0  0  0  0  0
  132.8158  130.7872  138.1475 C   0  0  2  0  0  0  0  0  0  0  0  0
  133.7267  131.2101  139.1991 N   0  0  0  0  0  0  0  0  0  0  0  0
  134.1042  130.2810  140.2601 C   0  0  0  0  0  0  0  0  0  0  0  0
  134.4635  128.9441  139.5963 C   0  0  0  0  0  0  0  0  0  0  0  0
  134.5840  129.1370  138.1102 C   0  0  0  0  0  0  0  0  0  0  0  0
  133.4182  129.6714  137.4879 N   0  0  0  0  0  0  0  0  0  0  0  0
  132.5356  128.7375  136.8826 C   0  0  1  0  0  0  0  0  0  0  0  0
  132.7553  128.6692  135.4256 C   0  0  0  0  0  0  0  0  0  0  0  0
  131.7099  129.2949  134.7134 O   0  0  0  0  0  0  0  0  0  0  0  0
  133.6956  128.1621  134.6583 C   0  0  0  0  0  0  0  0  0  0  0  0
  134.8859  127.4697  134.9568 O   0  0  0  0  0  0  0  0  0  0  0  0
  135.1941  126.3883  135.8058 C   0  0  0  0  0  0  0  0  0  0  0  0
  134.4958  125.9467  136.8612 C   0  0  0  0  0  0  0  0  0  0  0  0
  133.2632  126.3104  137.5462 C   0  0  0  0  0  0  0  0  0  0  0  0
  132.5192  127.4010  137.5393 C   0  0  0  0  0  0  0  0  0  0  0  0
  131.3163  127.3060  138.4240 C   0  0  0  0  0  0  0  0  0  0  0  0
  131.6835  126.4768  139.6134 C   0  0  0  0  0  0  0  0  0  0  0  0
  130.7352  125.3690  139.9261 C   0  0  0  0  0  0  0  0  0  0  0  0
  131.3230  124.2782  140.7344 C   0  0  0  0  0  0  0  0  0  0  0  0
  132.1011  123.3864  140.1343 C   0  0  0  0  0  0  0  0  0  0  0  0
  132.3813  123.4333  138.8046 F   0  0  0  0  0  0  0  0  0  0  0  0
  1  2  2  0
  2  3  1  0
  3  4  2  0
  4  5  1  0
  5  6  2  0
  6  7  1  0
  7  8  2  0
  8  9  1  0
  9 10  1  0
 10 11  1  0
 11 12  1  0
 12 13  1  0
 13 14  1  0
 15 14  1  1
 15 16  1  0
 16 17  1  0
 16 18  2  3
 18 19  1  0
 19 20  1  0
 20 21  2  3
 21 22  1  0
 22 23  2  3
 23 24  1  0
 24 25  1  0
 25 26  1  0
 26 27  1  0
 27 28  2  3
 28 29  1  0
 10  2  1  0
  8  3  1  0
  9 14  1  6
 23 15  1  0
M  END
>  <docking_score>  (3) 
-7.1559999999999997

$$$$
