
     RDKit          3D

 27 28  0  0  0  0  0  0  0  0999 V2000
  141.7640  135.8651  138.2792 C   0  0  0  0  0  0  0  0  0  0  0  0
  141.8595  134.3383  138.1777 C   0  0  0  0  0  0  0  0  0  0  0  0
  140.7703  133.9315  137.1785 C   0  0  2  0  0  0  0  0  0  0  0  0
  140.2350  132.5376  137.5561 C   0  0  0  0  0  0  0  0  0  0  0  0
  141.3171  133.8248  135.8148 C   0  0  2  0  0  0  0  0  0  0  0  0
  142.6359  134.2532  135.5622 N   0  0  0  0  0  0  0  0  0  0  0  0
  143.7550  133.3604  135.5015 C   0  0  0  0  0  0  0  0  0  0  0  0
  143.4658  132.1572  135.6861 O   0  0  0  0  0  0  0  0  0  0  0  0
  145.0284  133.8649  135.2586 N   0  0  0  0  0  0  0  0  0  0  0  0
  145.1887  135.0354  134.3922 C   0  0  0  0  0  0  0  0  0  0  0  0
  145.5776  136.1566  135.3607 C   0  0  0  0  0  0  0  0  0  0  0  0
  146.5372  135.6528  136.3718 C   0  0  0  0  0  0  0  0  0  0  0  0
  147.2350  134.4274  135.9569 C   0  0  0  0  0  0  0  0  0  0  0  0
  146.2303  133.2950  135.8103 C   0  0  0  0  0  0  0  0  0  0  0  0
  147.3582  136.7307  136.9760 C   0  0  0  0  0  0  0  0  0  0  0  0
  147.0209  136.8620  138.3718 N   0  0  0  0  0  0  0  0  0  0  0  0
  148.1407  137.3818  139.1580 C   0  0  0  0  0  0  0  0  0  0  0  0
  148.3146  136.5087  140.4074 C   0  0  0  0  0  0  0  0  0  0  0  0
  145.7214  136.5316  138.8055 C   0  0  0  0  0  0  0  0  0  0  0  0
  145.2603  136.5338  140.0482 C   0  0  0  0  0  0  0  0  0  0  0  0
  145.9841  136.8842  141.2729 C   0  0  0  0  0  0  0  0  0  0  0  0
  147.2808  136.8702  141.4215 C   0  0  0  0  0  0  0  0  0  0  0  0
  147.8897  137.3443  143.0020 Cl  0  0  0  0  0  0  0  0  0  0  0  0
  140.4222  133.6162  134.7112 C   0  0  0  0  0  0  0  0  0  0  0  0
  140.6392  133.9297  133.4491 C   0  0  0  0  0  0  0  0  0  0  0  0
  139.6236  133.6444  132.4672 C   0  0  0  0  0  0  0  0  0  0  0  0
  138.4253  133.5358  132.8335 O   0  0  0  0  0  0  0  0  0  0  0  0
  1  2  1  0
  2  3  1  0
  3  4  1  1
  3  5  1  0
  5  6  1  6
  6  7  1  0
  7  8  2  0
  7  9  1  0
  9 10  1  0
 10 11  1  0
 11 12  1  0
 12 13  1  0
 13 14  1  0
 12 15  1  0
 15 16  1  0
 16 17  1  0
 17 18  1  0
 16 19  1  0
 19 20  2  0
 20 21  1  0
 21 22  2  0
 22 23  1  0
  5 24  1  0
 24 25  2  3
 25 26  1  0
 26 27  2  0
 14  9  1  0
 22 18  1  0
M  END
>  <docking_score>  (1) 
-6.4050000000000002

$$$$

     RDKit          3D

 27 28  0  0  0  0  0  0  0  0999 V2000
  139.0837  128.3678  145.9216 C   0  0  0  0  0  0  0  0  0  0  0  0
  137.9891  128.2065  144.8603 C   0  0  0  0  0  0  0  0  0  0  0  0
  138.6163  128.7075  143.5544 C   0  0  2  0  0  0  0  0  0  0  0  0
  140.1294  128.9036  143.7645 C   0  0  0  0  0  0  0  0  0  0  0  0
  138.0642  130.0186  143.1716 C   0  0  2  0  0  0  0  0  0  0  0  0
  138.9244  131.0070  142.6521 N   0  0  0  0  0  0  0  0  0  0  0  0
  139.0157  131.3153  141.2557 C   0  0  0  0  0  0  0  0  0  0  0  0
  138.2596  130.6355  140.5267 O   0  0  0  0  0  0  0  0  0  0  0  0
  139.8994  132.2981  140.8220 N   0  0  0  0  0  0  0  0  0  0  0  0
  141.3302  131.9955  140.7344 C   0  0  0  0  0  0  0  0  0  0  0  0
  141.5984  131.9297  139.2278 C   0  0  0  0  0  0  0  0  0  0  0  0
  140.8676  133.0126  138.5276 C   0  0  0  0  0  0  0  0  0  0  0  0
  140.4836  134.1245  139.4092 C   0  0  0  0  0  0  0  0  0  0  0  0
  139.4924  133.6286  140.4507 C   0  0  0  0  0  0  0  0  0  0  0  0
  141.4690  133.3613  137.2171 C   0  0  0  0  0  0  0  0  0  0  0  0
  140.4884  133.1730  136.1768 N   0  0  0  0  0  0  0  0  0  0  0  0
  141.0969  133.1732  134.8457 C   0  0  0  0  0  0  0  0  0  0  0  0
  140.2863  134.1013  133.9319 C   0  0  0  0  0  0  0  0  0  0  0  0
  139.1357  132.9851  136.5245 C   0  0  0  0  0  0  0  0  0  0  0  0
  138.1016  132.8594  135.7048 C   0  0  0  0  0  0  0  0  0  0  0  0
  138.1105  132.8797  134.2398 C   0  0  0  0  0  0  0  0  0  0  0  0
  139.0392  133.4098  133.4913 C   0  0  0  0  0  0  0  0  0  0  0  0
  138.8032  133.2878  131.7527 Cl  0  0  0  0  0  0  0  0  0  0  0  0
  136.7589  130.3962  143.6359 C   0  0  0  0  0  0  0  0  0  0  0  0
  135.6524  130.4519  142.9210 C   0  0  0  0  0  0  0  0  0  0  0  0
  134.4224  130.8529  143.5560 C   0  0  0  0  0  0  0  0  0  0  0  0
  133.3294  130.4143  143.1146 O   0  0  0  0  0  0  0  0  0  0  0  0
  1  2  1  0
  2  3  1  0
  3  4  1  1
  3  5  1  0
  5  6  1  1
  6  7  1  0
  7  8  2  0
  7  9  1  0
  9 10  1  0
 10 11  1  0
 11 12  1  0
 12 13  1  0
 13 14  1  0
 12 15  1  0
 15 16  1  0
 16 17  1  0
 17 18  1  0
 16 19  1  0
 19 20  2  0
 20 21  1  0
 21 22  2  0
 22 23  1  0
  5 24  1  0
 24 25  2  3
 25 26  1  0
 26 27  2  0
 14  9  1  0
 22 18  1  0
M  END
>  <docking_score>  (2) 
-6.1699999999999999

$$$$

     RDKit          3D

 27 28  0  0  0  0  0  0  0  0999 V2000
  147.4890  136.5472  141.4481 C   0  0  0  0  0  0  0  0  0  0  0  0
  146.1735  137.3341  141.4753 C   0  0  0  0  0  0  0  0  0  0  0  0
  145.8457  137.6228  140.0058 C   0  0  2  0  0  0  0  0  0  0  0  0
  145.2531  139.0397  139.8905 C   0  0  0  0  0  0  0  0  0  0  0  0
  144.8249  136.6896  139.4986 C   0  0  2  0  0  0  0  0  0  0  0  0
  144.0107  135.9906  140.4125 N   0  0  0  0  0  0  0  0  0  0  0  0
  142.6080  136.2396  140.5663 C   0  0  0  0  0  0  0  0  0  0  0  0
  142.1565  137.1311  139.8136 O   0  0  0  0  0  0  0  0  0  0  0  0
  141.8763  135.5135  141.5004 N   0  0  0  0  0  0  0  0  0  0  0  0
  140.6305  136.0706  142.0335 C   0  0  0  0  0  0  0  0  0  0  0  0
  139.5400  135.2071  141.3921 C   0  0  0  0  0  0  0  0  0  0  0  0
  139.9517  133.7832  141.3810 C   0  0  0  0  0  0  0  0  0  0  0  0
  141.0036  133.4705  142.3592 C   0  0  0  0  0  0  0  0  0  0  0  0
  142.2752  134.2216  141.9959 C   0  0  0  0  0  0  0  0  0  0  0  0
  138.8013  132.8502  141.2989 C   0  0  0  0  0  0  0  0  0  0  0  0
  138.6989  132.3359  139.9557 N   0  0  0  0  0  0  0  0  0  0  0  0
  140.0142  132.1317  139.3470 C   0  0  0  0  0  0  0  0  0  0  0  0
  140.0096  132.7480  137.9420 C   0  0  0  0  0  0  0  0  0  0  0  0
  137.4274  132.0659  139.4113 C   0  0  0  0  0  0  0  0  0  0  0  0
  137.1462  131.6519  138.1839 C   0  0  0  0  0  0  0  0  0  0  0  0
  138.0854  131.3688  137.0955 C   0  0  0  0  0  0  0  0  0  0  0  0
  139.2993  131.8379  136.9960 C   0  0  0  0  0  0  0  0  0  0  0  0
  140.2177  131.3310  135.5843 Cl  0  0  0  0  0  0  0  0  0  0  0  0
  144.8915  136.2459  138.1345 C   0  0  0  0  0  0  0  0  0  0  0  0
  145.9809  136.0845  137.4094 C   0  0  0  0  0  0  0  0  0  0  0  0
  145.8602  135.6266  136.0483 C   0  0  0  0  0  0  0  0  0  0  0  0
  145.0685  136.2148  135.2679 O   0  0  0  0  0  0  0  0  0  0  0  0
  1  2  1  0
  2  3  1  0
  3  4  1  1
  3  5  1  0
  5  6  1  1
  6  7  1  0
  7  8  2  0
  7  9  1  0
  9 10  1  0
 10 11  1  0
 11 12  1  0
 12 13  1  0
 13 14  1  0
 12 15  1  0
 15 16  1  0
 16 17  1  0
 17 18  1  0
 16 19  1  0
 19 20  2  0
 20 21  1  0
 21 22  2  0
 22 23  1  0
  5 24  1  0
 24 25  2  3
 25 26  1  0
 26 27  2  0
 14  9  1  0
 22 18  1  0
M  END
>  <docking_score>  (3) 
-6.1280000000000001

$$$$
