
     RDKit          3D

 11 11  0  0  0  0  0  0  0  0999 V2000
  136.0306  122.0830  141.2007 O   0  0  0  0  0  0  0  0  0  0  0  0
  137.0594  121.4789  140.8572 C   0  0  0  0  0  0  0  0  0  0  0  0
  136.9523  120.5248  139.7976 N   0  0  0  0  0  0  0  0  0  0  0  0
  138.1335  119.8434  139.3967 C   0  0  0  0  0  0  0  0  0  0  0  0
  138.1918  118.6663  138.7518 C   0  0  0  0  0  0  0  0  0  0  0  0
  137.0710  117.8367  138.3253 C   0  0  0  0  0  0  0  0  0  0  0  0
  137.2878  116.9039  137.3985 C   0  0  0  0  0  0  0  0  0  0  0  0
  138.4917  116.7075  136.8527 F   0  0  0  0  0  0  0  0  0  0  0  0
  135.5986  120.4105  139.2909 C   0  0  0  0  0  0  0  0  0  0  0  0
  135.1234  119.0083  139.2283 C   0  0  0  0  0  0  0  0  0  0  0  0
  135.7430  117.9422  138.8248 N   0  0  0  0  0  0  0  0  0  0  0  0
  1  2  2  0
  2  3  1  0
  3  4  1  0
  4  5  2  0
  5  6  1  0
  6  7  2  3
  7  8  1  0
  3  9  1  0
  9 10  1  0
 10 11  2  0
 11  6  1  0
M  END
>  <docking_score>  (1) 
-4.4379999999999997

$$$$

     RDKit          3D

 11 11  0  0  0  0  0  0  0  0999 V2000
  121.9673  127.4082  139.6627 O   0  0  0  0  0  0  0  0  0  0  0  0
  122.0777  127.5017  140.8958 C   0  0  0  0  0  0  0  0  0  0  0  0
  122.6347  126.3911  141.6033 N   0  0  0  0  0  0  0  0  0  0  0  0
  124.0320  126.4036  141.8634 C   0  0  0  0  0  0  0  0  0  0  0  0
  124.6674  125.7148  142.8261 C   0  0  0  0  0  0  0  0  0  0  0  0
  124.0727  124.8128  143.8054 C   0  0  0  0  0  0  0  0  0  0  0  0
  124.8667  123.9496  144.4382 C   0  0  0  0  0  0  0  0  0  0  0  0
  126.1810  123.8864  144.2043 F   0  0  0  0  0  0  0  0  0  0  0  0
  121.6360  125.3985  141.9495 C   0  0  0  0  0  0  0  0  0  0  0  0
  121.6730  125.0192  143.3815 C   0  0  0  0  0  0  0  0  0  0  0  0
  122.6920  124.7771  144.1471 N   0  0  0  0  0  0  0  0  0  0  0  0
  1  2  2  0
  2  3  1  0
  3  4  1  0
  4  5  2  0
  5  6  1  0
  6  7  2  3
  7  8  1  0
  3  9  1  0
  9 10  1  0
 10 11  2  0
 11  6  1  0
M  END
>  <docking_score>  (2) 
-4.2709999999999999

$$$$
