
     RDKit          3D

 29 32  0  0  0  0  0  0  0  0999 V2000
  139.4875  115.0968  138.0599 O   0  0  0  0  0  0  0  0  0  0  0  0
  139.0115  115.5268  136.9671 C   0  0  0  0  0  0  0  0  0  0  0  0
  137.8379  116.3652  136.8022 N   0  0  0  0  0  0  0  0  0  0  0  0
  137.2147  117.3488  137.5993 C   0  0  0  0  0  0  0  0  0  0  0  0
  135.8578  117.4154  137.6589 C   0  0  0  0  0  0  0  0  0  0  0  0
  135.2130  118.3663  138.4167 C   0  0  0  0  0  0  0  0  0  0  0  0
  135.9778  119.2629  139.1248 C   0  0  0  0  0  0  0  0  0  0  0  0
  135.3981  120.2266  139.8940 F   0  0  0  0  0  0  0  0  0  0  0  0
  137.3571  119.2119  139.0778 C   0  0  0  0  0  0  0  0  0  0  0  0
  138.2874  120.3783  139.9993 Cl  0  0  0  0  0  0  0  0  0  0  0  0
  137.9840  118.2426  138.3057 C   0  0  0  0  0  0  0  0  0  0  0  0
  137.6525  115.7421  135.5153 C   0  0  1  0  0  0  0  0  0  0  0  0
  137.3308  116.7680  134.4862 C   0  0  0  0  0  0  0  0  0  0  0  0
  136.0935  116.8063  133.9066 C   0  0  0  0  0  0  0  0  0  0  0  0
  135.7596  117.7383  132.9697 C   0  0  0  0  0  0  0  0  0  0  0  0
  136.7267  118.6580  132.6179 C   0  0  0  0  0  0  0  0  0  0  0  0
  137.9551  118.5879  133.2208 C   0  0  0  0  0  0  0  0  0  0  0  0
  138.2593  117.6619  134.1402 N   0  0  0  0  0  0  0  0  0  0  0  0
  139.1804  115.5362  135.5478 C   0  0  2  0  0  0  0  0  0  0  0  0
  139.7197  114.5208  134.7103 C   0  0  0  0  0  0  0  0  0  0  0  0
  140.4072  114.6829  133.4517 C   0  0  0  0  0  0  0  0  0  0  0  0
  139.8311  113.9805  132.3755 N   0  0  0  0  0  0  0  0  0  0  0  0
  140.5247  112.9107  131.7592 C   0  0  0  0  0  0  0  0  0  0  0  0
  140.8618  112.7736  130.5118 N   0  0  0  0  0  0  0  0  0  0  0  0
  141.5580  111.5485  130.2665 C   0  0  0  0  0  0  0  0  0  0  0  0
  141.2697  110.7154  131.5043 C   0  0  0  0  0  0  0  0  0  0  0  0
  140.9745  111.7627  132.4933 N   0  0  0  0  0  0  0  0  0  0  0  0
  138.5268  114.3437  131.8983 C   0  0  0  0  0  0  0  0  0  0  0  0
  138.3726  115.6499  131.5542 F   0  0  0  0  0  0  0  0  0  0  0  0
  1  2  2  0
  2  3  1  0
  3  4  1  0
  4  5  2  0
  5  6  1  0
  6  7  2  0
  7  8  1  0
  7  9  1  0
  9 10  1  0
  9 11  2  0
  3 12  1  0
 12 13  1  6
 13 14  2  0
 14 15  1  0
 15 16  2  0
 16 17  1  0
 17 18  2  0
 12 19  1  0
 19 20  1  6
 20 21  1  0
 21 22  1  0
 22 23  1  0
 23 24  2  0
 24 25  1  0
 25 26  1  0
 26 27  1  0
 22 28  1  0
 28 29  1  0
 19  2  1  0
 11  4  1  0
 18 13  1  0
 27 23  1  0
M  END
>  <docking_score>  (1) 
-7.5430000000000001

$$$$

     RDKit          3D

 29 32  0  0  0  0  0  0  0  0999 V2000
  139.3922  114.7396  137.8272 O   0  0  0  0  0  0  0  0  0  0  0  0
  139.0747  115.2890  136.7303 C   0  0  0  0  0  0  0  0  0  0  0  0
  137.9776  116.2135  136.5088 N   0  0  0  0  0  0  0  0  0  0  0  0
  137.3194  117.1666  137.3149 C   0  0  0  0  0  0  0  0  0  0  0  0
  135.9789  117.3551  137.1866 C   0  0  0  0  0  0  0  0  0  0  0  0
  135.3028  118.2818  137.9472 C   0  0  0  0  0  0  0  0  0  0  0  0
  136.0187  119.0261  138.8548 C   0  0  0  0  0  0  0  0  0  0  0  0
  135.4060  119.9581  139.6374 F   0  0  0  0  0  0  0  0  0  0  0  0
  137.3807  118.8496  139.0004 C   0  0  0  0  0  0  0  0  0  0  0  0
  138.2483  119.8239  140.1722 Cl  0  0  0  0  0  0  0  0  0  0  0  0
  138.0398  117.9078  138.2211 C   0  0  0  0  0  0  0  0  0  0  0  0
  137.9127  115.7128  135.1583 C   0  0  1  0  0  0  0  0  0  0  0  0
  137.7737  116.8394  134.1958 C   0  0  0  0  0  0  0  0  0  0  0  0
  136.5885  117.0605  133.5517 C   0  0  0  0  0  0  0  0  0  0  0  0
  136.4212  118.0889  132.6729 C   0  0  0  0  0  0  0  0  0  0  0  0
  137.5045  118.9142  132.4492 C   0  0  0  0  0  0  0  0  0  0  0  0
  138.6758  118.6609  133.1135 C   0  0  0  0  0  0  0  0  0  0  0  0
  138.8157  117.6432  133.9736 N   0  0  0  0  0  0  0  0  0  0  0  0
  139.4120  115.4048  135.3462 C   0  0  2  0  0  0  0  0  0  0  0  0
  139.9901  114.4290  134.4877 C   0  0  0  0  0  0  0  0  0  0  0  0
  139.4612  113.1327  134.1371 C   0  0  0  0  0  0  0  0  0  0  0  0
  139.9586  112.6049  132.9298 N   0  0  0  0  0  0  0  0  0  0  0  0
  139.5196  113.1165  131.6845 C   0  0  0  0  0  0  0  0  0  0  0  0
  138.3470  113.5751  131.3633 N   0  0  0  0  0  0  0  0  0  0  0  0
  138.2841  114.0058  130.0009 C   0  0  0  0  0  0  0  0  0  0  0  0
  139.5147  113.3789  129.3671 C   0  0  0  0  0  0  0  0  0  0  0  0
  140.3821  113.1982  130.5406 N   0  0  0  0  0  0  0  0  0  0  0  0
  140.9240  111.5427  132.9553 C   0  0  0  0  0  0  0  0  0  0  0  0
  140.6832  110.5129  132.1011 F   0  0  0  0  0  0  0  0  0  0  0  0
  1  2  2  0
  2  3  1  0
  3  4  1  0
  4  5  2  0
  5  6  1  0
  6  7  2  0
  7  8  1  0
  7  9  1  0
  9 10  1  0
  9 11  2  0
  3 12  1  0
 12 13  1  6
 13 14  2  0
 14 15  1  0
 15 16  2  0
 16 17  1  0
 17 18  2  0
 12 19  1  0
 19 20  1  6
 20 21  1  0
 21 22  1  0
 22 23  1  0
 23 24  2  0
 24 25  1  0
 25 26  1  0
 26 27  1  0
 22 28  1  0
 28 29  1  0
 19  2  1  0
 11  4  1  0
 18 13  1  0
 27 23  1  0
M  END
>  <docking_score>  (2) 
-6.5869999999999997

$$$$

     RDKit          3D

 29 32  0  0  0  0  0  0  0  0999 V2000
  145.6140  136.1125  137.2178 O   0  0  0  0  0  0  0  0  0  0  0  0
  144.5565  135.4691  136.9464 C   0  0  0  0  0  0  0  0  0  0  0  0
  144.3414  134.5940  135.8084 N   0  0  0  0  0  0  0  0  0  0  0  0
  145.1839  133.7739  135.0279 C   0  0  0  0  0  0  0  0  0  0  0  0
  145.0282  132.4233  135.0507 C   0  0  0  0  0  0  0  0  0  0  0  0
  145.8362  131.5896  134.3116 C   0  0  0  0  0  0  0  0  0  0  0  0
  146.8202  132.1558  133.5362 C   0  0  0  0  0  0  0  0  0  0  0  0
  147.6510  131.3835  132.7814 F   0  0  0  0  0  0  0  0  0  0  0  0
  146.9946  133.5253  133.4992 C   0  0  0  0  0  0  0  0  0  0  0  0
  148.2643  134.1984  132.4942 Cl  0  0  0  0  0  0  0  0  0  0  0  0
  146.1660  134.3452  134.2541 C   0  0  0  0  0  0  0  0  0  0  0  0
  142.9462  134.9505  135.8792 C   0  0  1  0  0  0  0  0  0  0  0  0
  142.0953  133.7380  135.7359 C   0  0  0  0  0  0  0  0  0  0  0  0
  141.3077  133.5686  134.6316 C   0  0  0  0  0  0  0  0  0  0  0  0
  140.5247  132.4660  134.4610 C   0  0  0  0  0  0  0  0  0  0  0  0
  140.5518  131.5093  135.4553 C   0  0  0  0  0  0  0  0  0  0  0  0
  141.3539  131.7142  136.5472 C   0  0  0  0  0  0  0  0  0  0  0  0
  142.1155  132.8071  136.6920 N   0  0  0  0  0  0  0  0  0  0  0  0
  143.2236  135.1859  137.3778 C   0  0  2  0  0  0  0  0  0  0  0  0
  142.3203  136.0277  138.0840 C   0  0  0  0  0  0  0  0  0  0  0  0
  141.4662  135.6775  139.1935 C   0  0  0  0  0  0  0  0  0  0  0  0
  142.0561  135.8443  140.4614 N   0  0  0  0  0  0  0  0  0  0  0  0
  141.9071  134.8531  141.4617 C   0  0  0  0  0  0  0  0  0  0  0  0
  142.7832  133.9945  141.8904 N   0  0  0  0  0  0  0  0  0  0  0  0
  142.2597  133.1476  142.9173 C   0  0  0  0  0  0  0  0  0  0  0  0
  140.7559  133.3384  142.8107 C   0  0  0  0  0  0  0  0  0  0  0  0
  140.6784  134.6635  142.1782 N   0  0  0  0  0  0  0  0  0  0  0  0
  142.8215  137.0249  140.7465 C   0  0  0  0  0  0  0  0  0  0  0  0
  142.1422  138.0274  141.3644 F   0  0  0  0  0  0  0  0  0  0  0  0
  1  2  2  0
  2  3  1  0
  3  4  1  0
  4  5  2  0
  5  6  1  0
  6  7  2  0
  7  8  1  0
  7  9  1  0
  9 10  1  0
  9 11  2  0
  3 12  1  0
 12 13  1  1
 13 14  2  0
 14 15  1  0
 15 16  2  0
 16 17  1  0
 17 18  2  0
 12 19  1  0
 19 20  1  6
 20 21  1  0
 21 22  1  0
 22 23  1  0
 23 24  2  0
 24 25  1  0
 25 26  1  0
 26 27  1  0
 22 28  1  0
 28 29  1  0
 19  2  1  0
 11  4  1  0
 18 13  1  0
 27 23  1  0
M  END
>  <docking_score>  (3) 
-6.4880000000000004

$$$$
