
     RDKit          3D

 11 11  0  0  0  0  0  0  0  0999 V2000
  140.3135  118.4848  162.7064 O   0  0  0  0  0  0  0  0  0  0  0  0
  139.4721  118.2271  161.8129 C   0  0  0  0  0  0  0  0  0  0  0  0
  138.9042  116.9430  161.6316 N   0  0  0  0  0  0  0  0  0  0  0  0
  139.8622  115.8860  161.7765 C   0  0  0  0  0  0  0  0  0  0  0  0
  139.6310  114.5847  161.9306 C   0  0  0  0  0  0  0  0  0  0  0  0
  138.3357  113.9248  161.9887 C   0  0  0  0  0  0  0  0  0  0  0  0
  138.3196  112.6147  161.8260 C   0  0  0  0  0  0  0  0  0  0  0  0
  139.5032  111.9969  161.6199 F   0  0  0  0  0  0  0  0  0  0  0  0
  137.5171  116.9102  161.3438 C   0  0  0  0  0  0  0  0  0  0  0  0
  136.7870  115.7733  161.9313 C   0  0  0  0  0  0  0  0  0  0  0  0
  137.0708  114.5682  162.2070 N   0  0  0  0  0  0  0  0  0  0  0  0
  1  2  2  0
  2  3  1  0
  3  4  1  0
  4  5  2  0
  5  6  1  0
  6  7  2  3
  7  8  1  0
  3  9  1  0
  9 10  1  0
 10 11  2  0
 11  6  1  0
M  END
>  <docking_score>  (1) 
-2.5289999999999999

$$$$

     RDKit          3D

 11 11  0  0  0  0  0  0  0  0999 V2000
  141.7655  116.2766  165.8884 O   0  0  0  0  0  0  0  0  0  0  0  0
  142.0120  117.4339  165.4728 C   0  0  0  0  0  0  0  0  0  0  0  0
  141.6532  117.8847  164.1796 N   0  0  0  0  0  0  0  0  0  0  0  0
  142.2557  117.1104  163.1340 C   0  0  0  0  0  0  0  0  0  0  0  0
  141.9368  117.0874  161.8423 C   0  0  0  0  0  0  0  0  0  0  0  0
  140.8891  117.8524  161.1838 C   0  0  0  0  0  0  0  0  0  0  0  0
  140.9385  117.9313  159.8668 C   0  0  0  0  0  0  0  0  0  0  0  0
  141.9543  117.2972  159.2414 F   0  0  0  0  0  0  0  0  0  0  0  0
  140.7796  118.9992  164.1286 C   0  0  0  0  0  0  0  0  0  0  0  0
  139.8055  118.9754  163.0233 C   0  0  0  0  0  0  0  0  0  0  0  0
  139.8044  118.5309  161.8353 N   0  0  0  0  0  0  0  0  0  0  0  0
  1  2  2  0
  2  3  1  0
  3  4  1  0
  4  5  2  0
  5  6  1  0
  6  7  2  3
  7  8  1  0
  3  9  1  0
  9 10  1  0
 10 11  2  0
 11  6  1  0
M  END
>  <docking_score>  (2) 
-1.6990000000000001

$$$$
