
     RDKit          3D

 31 36  0  0  0  0  0  0  0  0999 V2000
  134.2311  123.9395  139.2989 O   0  0  0  0  0  0  0  0  0  0  0  0
  134.7002  124.1713  140.4694 C   0  0  0  0  0  0  0  0  0  0  0  0
  135.6907  123.2314  140.9047 N   0  0  0  0  0  0  0  0  0  0  0  0
  136.0841  122.1346  140.0499 C   0  0  1  0  0  0  0  0  0  0  0  0
  137.4492  121.5675  140.5703 C   0  0  0  0  0  0  0  0  0  0  0  0
  136.1223  120.7420  140.4881 C   0  0  2  0  0  0  0  0  0  0  0  0
  136.2314  119.7221  139.3877 C   0  0  0  0  0  0  0  0  0  0  0  0
  136.1598  118.3740  139.6757 C   0  0  0  0  0  0  0  0  0  0  0  0
  136.2639  117.4478  138.6551 C   0  0  0  0  0  0  0  0  0  0  0  0
  136.4385  117.8261  137.3468 C   0  0  0  0  0  0  0  0  0  0  0  0
  136.5132  119.1838  137.0402 C   0  0  0  0  0  0  0  0  0  0  0  0
  136.4081  120.0742  138.0604 C   0  0  0  0  0  0  0  0  0  0  0  0
  134.2721  125.2490  141.2389 N   0  0  0  0  0  0  0  0  0  0  0  0
  134.7883  126.6868  140.7677 C   0  0  0  0  0  0  0  0  0  0  0  0
  133.8929  127.6064  141.5693 C   0  0  0  0  0  0  0  0  0  0  0  0
  133.4300  127.2794  142.9191 C   0  0  2  0  0  0  0  0  0  0  0  0
  132.9110  128.2986  143.7555 C   0  0  0  0  0  0  0  0  0  0  0  0
  132.0377  129.2797  143.3553 N   0  0  0  0  0  0  0  0  0  0  0  0
  131.7430  130.0938  144.4114 C   0  0  0  0  0  0  0  0  0  0  0  0
  130.8542  131.2326  144.3507 C   0  0  0  0  0  0  0  0  0  0  0  0
  129.6822  131.1776  143.6503 C   0  0  0  0  0  0  0  0  0  0  0  0
  128.8345  132.2991  143.5943 C   0  0  0  0  0  0  0  0  0  0  0  0
  129.1785  133.4572  144.2433 C   0  0  0  0  0  0  0  0  0  0  0  0
  130.3870  133.4666  144.9479 C   0  0  0  0  0  0  0  0  0  0  0  0
  131.1653  132.3673  144.9719 N   0  0  0  0  0  0  0  0  0  0  0  0
  132.4446  129.5822  145.4152 N   0  0  0  0  0  0  0  0  0  0  0  0
  133.1202  128.5493  145.0483 O   0  0  0  0  0  0  0  0  0  0  0  0
  134.2110  126.1030  143.5786 C   0  0  0  0  0  0  0  0  0  0  0  0
  133.5556  125.5884  142.2864 C   0  0  0  0  0  0  0  0  0  0  0  0
  132.4800  125.9593  142.8219 C   0  0  0  0  0  0  0  0  0  0  0  0
  131.2059  125.9303  143.2947 O   0  0  0  0  0  0  0  0  0  0  0  0
  1  2  2  0
  2  3  1  0
  4  3  1  1
  4  5  1  0
  5  6  1  0
  6  7  1  6
  7  8  2  0
  8  9  1  0
  9 10  2  0
 10 11  1  0
 11 12  2  0
  2 13  1  0
 13 14  1  0
 14 15  1  0
 15 16  1  0
 16 17  1  1
 17 18  2  0
 18 19  1  0
 19 20  1  0
 20 21  2  0
 21 22  1  0
 22 23  2  0
 23 24  1  0
 24 25  2  0
 19 26  2  0
 26 27  1  0
 16 28  1  0
 28 29  1  0
 29 30  2  0
 30 31  1  0
  6  4  1  0
 12  7  1  0
 29 13  1  0
 30 16  1  0
 27 17  1  0
 25 20  1  0
M  END
>  <docking_score>  (1) 
-8.1630000000000003

$$$$

     RDKit          3D

 31 36  0  0  0  0  0  0  0  0999 V2000
  129.3500  133.7605  138.3980 O   0  0  0  0  0  0  0  0  0  0  0  0
  130.0890  134.8048  138.3119 C   0  0  0  0  0  0  0  0  0  0  0  0
  131.2196  134.6574  137.4437 N   0  0  0  0  0  0  0  0  0  0  0  0
  131.4534  133.4101  136.7522 C   0  0  1  0  0  0  0  0  0  0  0  0
  132.0444  133.7327  135.3371 C   0  0  0  0  0  0  0  0  0  0  0  0
  132.7841  132.8988  136.4354 C   0  0  2  0  0  0  0  0  0  0  0  0
  132.8381  131.4542  136.0193 C   0  0  0  0  0  0  0  0  0  0  0  0
  134.0364  130.7690  136.0297 C   0  0  0  0  0  0  0  0  0  0  0  0
  134.0717  129.4426  135.6427 C   0  0  0  0  0  0  0  0  0  0  0  0
  132.9418  128.7729  135.2427 C   0  0  0  0  0  0  0  0  0  0  0  0
  131.7243  129.4514  135.2263 C   0  0  0  0  0  0  0  0  0  0  0  0
  131.7156  130.7540  135.6112 C   0  0  0  0  0  0  0  0  0  0  0  0
  129.8028  135.9743  139.0100 N   0  0  0  0  0  0  0  0  0  0  0  0
  128.4580  136.7260  138.5831 C   0  0  0  0  0  0  0  0  0  0  0  0
  128.2851  137.7057  139.7233 C   0  0  0  0  0  0  0  0  0  0  0  0
  129.4187  138.3319  140.4060 C   0  0  2  0  0  0  0  0  0  0  0  0
  129.2162  139.4885  141.1990 C   0  0  0  0  0  0  0  0  0  0  0  0
  129.6491  140.7514  140.8779 N   0  0  0  0  0  0  0  0  0  0  0  0
  129.2851  141.6275  141.8603 C   0  0  0  0  0  0  0  0  0  0  0  0
  129.5770  143.0436  141.8508 C   0  0  0  0  0  0  0  0  0  0  0  0
  130.8345  143.5039  141.5788 C   0  0  0  0  0  0  0  0  0  0  0  0
  131.1021  144.8852  141.5837 C   0  0  0  0  0  0  0  0  0  0  0  0
  130.1015  145.7809  141.8617 C   0  0  0  0  0  0  0  0  0  0  0  0
  128.8305  145.2635  142.1334 C   0  0  0  0  0  0  0  0  0  0  0  0
  128.6236  143.9325  142.1171 N   0  0  0  0  0  0  0  0  0  0  0  0
  128.6451  140.8705  142.7430 N   0  0  0  0  0  0  0  0  0  0  0  0
  128.6002  139.6383  142.3720 O   0  0  0  0  0  0  0  0  0  0  0  0
  130.7678  138.1831  139.6400 C   0  0  0  0  0  0  0  0  0  0  0  0
  130.2305  136.7778  139.9571 C   0  0  0  0  0  0  0  0  0  0  0  0
  130.2682  137.1602  141.1544 C   0  0  0  0  0  0  0  0  0  0  0  0
  130.5452  137.1846  142.4850 O   0  0  0  0  0  0  0  0  0  0  0  0
  1  2  2  0
  2  3  1  0
  4  3  1  1
  4  5  1  0
  5  6  1  0
  6  7  1  6
  7  8  2  0
  8  9  1  0
  9 10  2  0
 10 11  1  0
 11 12  2  0
  2 13  1  0
 13 14  1  0
 14 15  1  0
 15 16  1  0
 16 17  1  1
 17 18  2  0
 18 19  1  0
 19 20  1  0
 20 21  2  0
 21 22  1  0
 22 23  2  0
 23 24  1  0
 24 25  2  0
 19 26  2  0
 26 27  1  0
 16 28  1  0
 28 29  1  0
 29 30  2  0
 30 31  1  0
  6  4  1  0
 12  7  1  0
 29 13  1  0
 30 16  1  0
 27 17  1  0
 25 20  1  0
M  END
>  <docking_score>  (2) 
-8.1560000000000006

$$$$

     RDKit          3D

 31 36  0  0  0  0  0  0  0  0999 V2000
  141.5796  131.8980  142.9865 O   0  0  0  0  0  0  0  0  0  0  0  0
  140.4902  131.6790  142.3469 C   0  0  0  0  0  0  0  0  0  0  0  0
  140.3568  132.4310  141.1342 N   0  0  0  0  0  0  0  0  0  0  0  0
  141.3976  133.3448  140.7218 C   0  0  1  0  0  0  0  0  0  0  0  0
  140.9653  134.0086  139.3696 C   0  0  0  0  0  0  0  0  0  0  0  0
  141.2351  134.7958  140.6948 C   0  0  2  0  0  0  0  0  0  0  0  0
  142.5086  135.5853  140.5608 C   0  0  0  0  0  0  0  0  0  0  0  0
  143.3644  135.7176  141.6358 C   0  0  0  0  0  0  0  0  0  0  0  0
  144.5299  136.4478  141.4991 C   0  0  0  0  0  0  0  0  0  0  0  0
  144.8716  137.0548  140.3160 C   0  0  0  0  0  0  0  0  0  0  0  0
  144.0173  136.9308  139.2215 C   0  0  0  0  0  0  0  0  0  0  0  0
  142.8784  136.2081  139.3809 C   0  0  0  0  0  0  0  0  0  0  0  0
  139.5288  130.7835  142.8060 N   0  0  0  0  0  0  0  0  0  0  0  0
  140.0899  129.4251  143.4353 C   0  0  0  0  0  0  0  0  0  0  0  0
  138.8557  128.8763  144.1174 C   0  0  0  0  0  0  0  0  0  0  0  0
  137.5071  129.0596  143.5779 C   0  0  2  0  0  0  0  0  0  0  0  0
  136.4447  128.2412  144.0350 C   0  0  0  0  0  0  0  0  0  0  0  0
  135.4246  127.7611  143.2513 N   0  0  0  0  0  0  0  0  0  0  0  0
  134.5750  127.0080  144.0103 C   0  0  0  0  0  0  0  0  0  0  0  0
  133.3900  126.3472  143.5104 C   0  0  0  0  0  0  0  0  0  0  0  0
  132.3888  125.9579  144.3549 C   0  0  0  0  0  0  0  0  0  0  0  0
  131.2473  125.3073  143.8515 C   0  0  0  0  0  0  0  0  0  0  0  0
  131.1310  125.0589  142.5078 C   0  0  0  0  0  0  0  0  0  0  0  0
  132.1803  125.4761  141.6820 C   0  0  0  0  0  0  0  0  0  0  0  0
  133.2533  126.0952  142.2112 N   0  0  0  0  0  0  0  0  0  0  0  0
  135.1051  127.0551  145.2262 N   0  0  0  0  0  0  0  0  0  0  0  0
  136.1809  127.7623  145.2511 O   0  0  0  0  0  0  0  0  0  0  0  0
  137.4883  129.5427  142.0962 C   0  0  0  0  0  0  0  0  0  0  0  0
  138.2367  130.5880  142.9396 C   0  0  0  0  0  0  0  0  0  0  0  0
  137.1670  130.6529  143.5975 C   0  0  0  0  0  0  0  0  0  0  0  0
  136.0713  131.1662  144.2169 O   0  0  0  0  0  0  0  0  0  0  0  0
  1  2  2  0
  2  3  1  0
  4  3  1  1
  4  5  1  0
  5  6  1  0
  6  7  1  6
  7  8  2  0
  8  9  1  0
  9 10  2  0
 10 11  1  0
 11 12  2  0
  2 13  1  0
 13 14  1  0
 14 15  1  0
 15 16  1  0
 16 17  1  6
 17 18  2  0
 18 19  1  0
 19 20  1  0
 20 21  2  0
 21 22  1  0
 22 23  2  0
 23 24  1  0
 24 25  2  0
 19 26  2  0
 26 27  1  0
 16 28  1  0
 28 29  1  0
 29 30  2  0
 30 31  1  0
  6  4  1  0
 12  7  1  0
 29 13  1  0
 30 16  1  0
 27 17  1  0
 25 20  1  0
M  END
>  <docking_score>  (3) 
-8.0109999999999992

$$$$
