
     RDKit          3D

 29 33  0  0  0  0  0  0  0  0999 V2000
  126.6814  123.9001  144.0676 O   0  0  0  0  0  0  0  0  0  0  0  0
  126.7895  125.1543  144.1461 C   0  0  0  0  0  0  0  0  0  0  0  0
  125.6231  125.8519  144.5901 N   0  0  0  0  0  0  0  0  0  0  0  0
  124.3979  125.2180  144.9395 C   0  0  1  0  0  0  0  0  0  0  0  0
  123.1033  125.9734  145.0163 C   0  0  0  0  0  0  0  0  0  0  0  0
  123.3307  124.8254  144.0306 C   0  0  1  0  0  0  0  0  0  0  0  0
  123.1793  125.1826  142.6318 C   0  0  0  0  0  0  0  0  0  0  0  0
  123.8912  126.1762  141.9789 C   0  0  0  0  0  0  0  0  0  0  0  0
  123.6974  126.4660  140.6590 C   0  0  0  0  0  0  0  0  0  0  0  0
  122.7592  125.7491  139.9342 C   0  0  0  0  0  0  0  0  0  0  0  0
  122.0282  124.7532  140.5421 C   0  0  0  0  0  0  0  0  0  0  0  0
  122.2494  124.4894  141.8675 C   0  0  0  0  0  0  0  0  0  0  0  0
  128.0026  125.8164  143.8092 N   0  0  0  0  0  0  0  0  0  0  0  0
  129.0898  124.9182  143.3786 C   0  0  2  0  0  0  0  0  0  0  0  0
  130.3636  125.7533  143.4225 C   0  0  0  0  0  0  0  0  0  0  0  0
  131.1100  125.4598  142.1751 C   0  0  2  0  0  0  0  0  0  0  0  0
  130.9699  126.5437  141.1602 C   0  0  0  0  0  0  0  0  0  0  0  0
  131.6554  126.4687  139.9709 N   0  0  0  0  0  0  0  0  0  0  0  0
  131.3613  127.5670  139.2283 C   0  0  0  0  0  0  0  0  0  0  0  0
  131.8810  127.8801  137.8990 C   0  0  0  0  0  0  0  0  0  0  0  0
  132.8765  127.1498  137.4384 C   0  0  0  0  0  0  0  0  0  0  0  0
  133.4319  127.4065  136.1476 C   0  0  0  0  0  0  0  0  0  0  0  0
  133.0679  128.3187  135.3042 C   0  0  0  0  0  0  0  0  0  0  0  0
  132.0322  129.3295  135.3864 C   0  0  0  0  0  0  0  0  0  0  0  0
  131.1665  129.2025  136.9598 S   0  0  0  0  0  0  0  0  0  0  0  0
  130.5137  128.2742  139.9718 N   0  0  0  0  0  0  0  0  0  0  0  0
  130.3059  127.6386  141.1087 O   0  0  0  0  0  0  0  0  0  0  0  0
  130.4387  124.2131  141.6111 C   0  0  0  0  0  0  0  0  0  0  0  0
  128.9783  124.5567  141.9190 C   0  0  0  0  0  0  0  0  0  0  0  0
  1  2  2  0
  2  3  1  0
  4  3  1  6
  4  5  1  0
  5  6  1  0
  6  7  1  6
  7  8  2  0
  8  9  1  0
  9 10  2  0
 10 11  1  0
 11 12  2  0
  2 13  1  0
 14 13  1  6
 14 15  1  0
 15 16  1  0
 16 17  1  6
 17 18  2  0
 18 19  1  0
 19 20  1  0
 20 21  2  0
 21 22  1  0
 22 23  2  0
 23 24  1  0
 24 25  1  0
 19 26  2  0
 26 27  1  0
 16 28  1  0
 28 29  1  0
  6  4  1  0
 12  7  1  0
 29 14  1  0
 27 17  1  0
 25 20  1  0
M  END
>  <docking_score>  (1) 
-7.992

$$$$

     RDKit          3D

 29 33  0  0  0  0  0  0  0  0999 V2000
  126.5265  125.5275  144.9061 O   0  0  0  0  0  0  0  0  0  0  0  0
  126.4682  125.0569  143.7374 C   0  0  0  0  0  0  0  0  0  0  0  0
  125.1653  124.6827  143.2825 N   0  0  0  0  0  0  0  0  0  0  0  0
  123.9793  124.8191  144.0570 C   0  0  1  0  0  0  0  0  0  0  0  0
  123.1171  126.0454  143.9850 C   0  0  0  0  0  0  0  0  0  0  0  0
  122.6105  124.6571  143.5888 C   0  0  1  0  0  0  0  0  0  0  0  0
  122.1485  124.5441  142.2172 C   0  0  0  0  0  0  0  0  0  0  0  0
  121.1827  123.6568  141.7697 C   0  0  0  0  0  0  0  0  0  0  0  0
  120.7953  123.5981  140.4619 C   0  0  0  0  0  0  0  0  0  0  0  0
  121.3798  124.4498  139.5387 C   0  0  0  0  0  0  0  0  0  0  0  0
  122.3443  125.3474  139.9386 C   0  0  0  0  0  0  0  0  0  0  0  0
  122.7079  125.3790  141.2583 C   0  0  0  0  0  0  0  0  0  0  0  0
  127.6352  124.9136  142.9366 N   0  0  0  0  0  0  0  0  0  0  0  0
  128.8807  125.3620  143.5861 C   0  0  2  0  0  0  0  0  0  0  0  0
  129.2073  126.7177  142.9719 C   0  0  0  0  0  0  0  0  0  0  0  0
  130.6598  126.7122  142.6727 C   0  0  2  0  0  0  0  0  0  0  0  0
  130.9412  126.4916  141.2247 C   0  0  0  0  0  0  0  0  0  0  0  0
  132.2311  126.2867  140.7954 N   0  0  0  0  0  0  0  0  0  0  0  0
  132.2199  126.1139  139.4485 C   0  0  0  0  0  0  0  0  0  0  0  0
  133.3813  125.8721  138.5952 C   0  0  0  0  0  0  0  0  0  0  0  0
  134.3491  125.1150  139.0710 C   0  0  0  0  0  0  0  0  0  0  0  0
  135.5128  124.8427  138.2885 C   0  0  0  0  0  0  0  0  0  0  0  0
  135.7684  125.2621  137.0907 C   0  0  0  0  0  0  0  0  0  0  0  0
  135.0003  126.1039  136.1949 C   0  0  0  0  0  0  0  0  0  0  0  0
  133.4499  126.5843  136.9737 S   0  0  0  0  0  0  0  0  0  0  0  0
  130.9410  126.2143  139.0943 N   0  0  0  0  0  0  0  0  0  0  0  0
  130.2133  126.4389  140.1712 O   0  0  0  0  0  0  0  0  0  0  0  0
  131.2037  125.5095  143.4345 C   0  0  0  0  0  0  0  0  0  0  0  0
  130.0634  124.5189  143.1812 C   0  0  0  0  0  0  0  0  0  0  0  0
  1  2  2  0
  2  3  1  0
  4  3  1  6
  4  5  1  0
  5  6  1  0
  6  7  1  6
  7  8  2  0
  8  9  1  0
  9 10  2  0
 10 11  1  0
 11 12  2  0
  2 13  1  0
 14 13  1  6
 14 15  1  0
 15 16  1  0
 16 17  1  6
 17 18  2  0
 18 19  1  0
 19 20  1  0
 20 21  2  0
 21 22  1  0
 22 23  2  0
 23 24  1  0
 24 25  1  0
 19 26  2  0
 26 27  1  0
 16 28  1  0
 28 29  1  0
  6  4  1  0
 12  7  1  0
 29 14  1  0
 27 17  1  0
 25 20  1  0
M  END
>  <docking_score>  (2) 
-7.8410000000000002

$$$$

     RDKit          3D

 29 33  0  0  0  0  0  0  0  0999 V2000
  135.9390  116.8650  136.1321 O   0  0  0  0  0  0  0  0  0  0  0  0
  136.6677  117.8399  135.8012 C   0  0  0  0  0  0  0  0  0  0  0  0
  136.8081  118.0617  134.3957 N   0  0  0  0  0  0  0  0  0  0  0  0
  136.1816  117.2670  133.3952 C   0  0  1  0  0  0  0  0  0  0  0  0
  136.6356  117.2829  131.9648 C   0  0  0  0  0  0  0  0  0  0  0  0
  136.6838  116.0226  132.8310 C   0  0  1  0  0  0  0  0  0  0  0  0
  138.0050  115.4433  132.9934 C   0  0  0  0  0  0  0  0  0  0  0  0
  138.6136  114.5777  132.0987 C   0  0  0  0  0  0  0  0  0  0  0  0
  139.8599  114.0636  132.3132 C   0  0  0  0  0  0  0  0  0  0  0  0
  140.5524  114.4111  133.4618 C   0  0  0  0  0  0  0  0  0  0  0  0
  139.9862  115.2678  134.3790 C   0  0  0  0  0  0  0  0  0  0  0  0
  138.7346  115.7647  134.1308 C   0  0  0  0  0  0  0  0  0  0  0  0
  137.3027  118.6561  136.7780 N   0  0  0  0  0  0  0  0  0  0  0  0
  137.0279  118.2654  138.1730 C   0  0  2  0  0  0  0  0  0  0  0  0
  135.5605  118.5951  138.4177 C   0  0  0  0  0  0  0  0  0  0  0  0
  135.4864  119.2550  139.7437 C   0  0  2  0  0  0  0  0  0  0  0  0
  135.3358  120.7349  139.6347 C   0  0  0  0  0  0  0  0  0  0  0  0
  134.1030  121.3180  139.8081 N   0  0  0  0  0  0  0  0  0  0  0  0
  134.2316  122.6617  139.6593 C   0  0  0  0  0  0  0  0  0  0  0  0
  133.1621  123.6522  139.7615 C   0  0  0  0  0  0  0  0  0  0  0  0
  132.0703  123.3152  140.4177 C   0  0  0  0  0  0  0  0  0  0  0  0
  130.9868  124.2366  140.5511 C   0  0  0  0  0  0  0  0  0  0  0  0
  130.9221  125.4437  140.0879 C   0  0  0  0  0  0  0  0  0  0  0  0
  131.8761  126.2188  139.3195 C   0  0  0  0  0  0  0  0  0  0  0  0
  133.3636  125.2496  139.0207 S   0  0  0  0  0  0  0  0  0  0  0  0
  135.5223  122.8626  139.4044 N   0  0  0  0  0  0  0  0  0  0  0  0
  136.1448  121.6998  139.3965 O   0  0  0  0  0  0  0  0  0  0  0  0
  136.8402  118.9774  140.3863 C   0  0  0  0  0  0  0  0  0  0  0  0
  137.7390  119.1571  139.1592 C   0  0  0  0  0  0  0  0  0  0  0  0
  1  2  2  0
  2  3  1  0
  4  3  1  1
  4  5  1  0
  5  6  1  0
  6  7  1  1
  7  8  2  0
  8  9  1  0
  9 10  2  0
 10 11  1  0
 11 12  2  0
  2 13  1  0
 14 13  1  6
 14 15  1  0
 15 16  1  0
 16 17  1  6
 17 18  2  0
 18 19  1  0
 19 20  1  0
 20 21  2  0
 21 22  1  0
 22 23  2  0
 23 24  1  0
 24 25  1  0
 19 26  2  0
 26 27  1  0
 16 28  1  0
 28 29  1  0
  6  4  1  0
 12  7  1  0
 29 14  1  0
 27 17  1  0
 25 20  1  0
M  END
>  <docking_score>  (3) 
-7.7069999999999999

$$$$
