
     RDKit          3D

 24 25  0  0  0  0  0  0  0  0999 V2000
  131.3517  144.6778  141.8421 C   0  0  0  0  0  0  0  0  0  0  0  0
  132.3008  145.8036  141.8051 C   0  0  2  0  0  0  0  0  0  0  0  0
  132.2964  146.6313  143.0606 C   0  0  0  0  0  0  0  0  0  0  0  0
  131.8828  146.5771  140.6377 N   0  0  0  0  0  0  0  0  0  0  0  0
  130.4617  146.3862  140.6392 C   0  0  0  0  0  0  0  0  0  0  0  0
  130.2494  144.9676  141.1688 C   0  0  0  0  0  0  0  0  0  0  0  0
  129.0439  144.2067  140.9146 C   0  0  0  0  0  0  0  0  0  0  0  0
  128.6103  143.1872  141.7648 C   0  0  0  0  0  0  0  0  0  0  0  0
  128.6264  141.8266  141.3627 N   0  0  0  0  0  0  0  0  0  0  0  0
  127.8608  140.8568  142.1654 C   0  0  0  0  0  0  0  0  0  0  0  0
  126.8802  140.2639  141.6781 O   0  0  0  0  0  0  0  0  0  0  0  0
  128.2688  140.6305  143.4701 N   0  0  0  0  0  0  0  0  0  0  0  0
  127.6123  139.7112  144.3605 C   0  0  0  0  0  0  0  0  0  0  0  0
  128.1699  138.4778  144.6250 C   0  0  0  0  0  0  0  0  0  0  0  0
  127.5716  137.5615  145.4763 C   0  0  0  0  0  0  0  0  0  0  0  0
  128.2038  136.2240  145.7453 C   0  0  0  0  0  0  0  0  0  0  0  0
  126.3715  137.8753  146.0935 C   0  0  0  0  0  0  0  0  0  0  0  0
  125.8009  139.1052  145.8391 C   0  0  0  0  0  0  0  0  0  0  0  0
  124.6260  139.3853  146.4570 F   0  0  0  0  0  0  0  0  0  0  0  0
  126.4181  140.0029  144.9850 C   0  0  0  0  0  0  0  0  0  0  0  0
  129.2714  141.3620  140.1732 C   0  0  0  0  0  0  0  0  0  0  0  0
  130.6052  140.7744  140.3818 C   0  0  0  0  0  0  0  0  0  0  0  0
  130.7672  139.4070  139.7809 C   0  0  0  0  0  0  0  0  0  0  0  0
  129.4221  138.7251  139.6688 C   0  0  0  0  0  0  0  0  0  0  0  0
  1  2  1  0
  2  3  1  1
  2  4  1  0
  4  5  1  0
  5  6  1  0
  6  7  1  0
  7  8  1  0
  8  9  1  0
  9 10  1  0
 10 11  2  0
 10 12  1  0
 12 13  1  0
 13 14  2  0
 14 15  1  0
 15 16  1  0
 15 17  2  0
 17 18  1  0
 18 19  1  0
 18 20  2  0
  9 21  1  0
 21 22  1  0
 22 23  1  0
 23 24  1  0
  1  6  2  0
 20 13  1  0
M  END
>  <docking_score>  (1) 
-6.4029999999999996

$$$$

     RDKit          3D

 24 25  0  0  0  0  0  0  0  0999 V2000
  135.4331  115.3686  131.0627 C   0  0  0  0  0  0  0  0  0  0  0  0
  136.3303  114.7213  130.0903 C   0  0  2  0  0  0  0  0  0  0  0  0
  136.5980  113.2732  130.3950 C   0  0  0  0  0  0  0  0  0  0  0  0
  137.5484  115.5270  130.1459 N   0  0  0  0  0  0  0  0  0  0  0  0
  137.5860  115.9270  131.5223 C   0  0  0  0  0  0  0  0  0  0  0  0
  136.1217  116.0932  131.9305 C   0  0  0  0  0  0  0  0  0  0  0  0
  135.7076  116.9051  133.0557 C   0  0  0  0  0  0  0  0  0  0  0  0
  136.6215  117.5872  133.8618 C   0  0  0  0  0  0  0  0  0  0  0  0
  137.1087  117.0274  135.0711 N   0  0  0  0  0  0  0  0  0  0  0  0
  136.7434  117.6863  136.3373 C   0  0  0  0  0  0  0  0  0  0  0  0
  135.6038  117.5468  136.8193 O   0  0  0  0  0  0  0  0  0  0  0  0
  137.7061  118.4591  136.9665 N   0  0  0  0  0  0  0  0  0  0  0  0
  137.4824  119.1549  138.2054 C   0  0  0  0  0  0  0  0  0  0  0  0
  136.4614  120.0759  138.3136 C   0  0  0  0  0  0  0  0  0  0  0  0
  136.2103  120.7689  139.4879 C   0  0  0  0  0  0  0  0  0  0  0  0
  135.0893  121.7673  139.5756 C   0  0  0  0  0  0  0  0  0  0  0  0
  137.0003  120.5438  140.6037 C   0  0  0  0  0  0  0  0  0  0  0  0
  138.0256  119.6256  140.5115 C   0  0  0  0  0  0  0  0  0  0  0  0
  138.7827  119.4257  141.6194 F   0  0  0  0  0  0  0  0  0  0  0  0
  138.2561  118.9464  139.3275 C   0  0  0  0  0  0  0  0  0  0  0  0
  137.8593  115.8110  135.1325 C   0  0  0  0  0  0  0  0  0  0  0  0
  138.3125  115.4309  136.4808 C   0  0  0  0  0  0  0  0  0  0  0  0
  139.4281  114.4247  136.4854 C   0  0  0  0  0  0  0  0  0  0  0  0
  139.0921  113.2711  135.5672 C   0  0  0  0  0  0  0  0  0  0  0  0
  1  2  1  0
  2  3  1  1
  2  4  1  0
  4  5  1  0
  5  6  1  0
  6  7  1  0
  7  8  1  0
  8  9  1  0
  9 10  1  0
 10 11  2  0
 10 12  1  0
 12 13  1  0
 13 14  2  0
 14 15  1  0
 15 16  1  0
 15 17  2  0
 17 18  1  0
 18 19  1  0
 18 20  2  0
  9 21  1  0
 21 22  1  0
 22 23  1  0
 23 24  1  0
  1  6  2  0
 20 13  1  0
M  END
>  <docking_score>  (2) 
-6.2300000000000004

$$$$

     RDKit          3D

 24 25  0  0  0  0  0  0  0  0999 V2000
  125.1809  125.5170  142.8329 C   0  0  0  0  0  0  0  0  0  0  0  0
  125.1933  125.1995  144.2712 C   0  0  2  0  0  0  0  0  0  0  0  0
  124.8463  123.7674  144.5707 C   0  0  0  0  0  0  0  0  0  0  0  0
  124.2228  126.1298  144.8445 N   0  0  0  0  0  0  0  0  0  0  0  0
  123.2565  126.2483  143.7919 C   0  0  0  0  0  0  0  0  0  0  0  0
  124.0610  126.1373  142.4963 C   0  0  0  0  0  0  0  0  0  0  0  0
  123.5820  126.6471  141.2284 C   0  0  0  0  0  0  0  0  0  0  0  0
  122.3126  127.2102  141.0808 C   0  0  0  0  0  0  0  0  0  0  0  0
  121.1990  126.4350  140.6658 N   0  0  0  0  0  0  0  0  0  0  0  0
  121.1035  125.0453  141.1458 C   0  0  0  0  0  0  0  0  0  0  0  0
  121.3728  124.0932  140.3899 O   0  0  0  0  0  0  0  0  0  0  0  0
  120.7073  124.8389  142.4575 N   0  0  0  0  0  0  0  0  0  0  0  0
  120.5740  123.5361  143.0522 C   0  0  0  0  0  0  0  0  0  0  0  0
  119.3250  123.0172  143.3227 C   0  0  0  0  0  0  0  0  0  0  0  0
  119.1504  121.7665  143.8949 C   0  0  0  0  0  0  0  0  0  0  0  0
  117.7756  121.2274  144.1781 C   0  0  0  0  0  0  0  0  0  0  0  0
  120.2554  120.9940  144.2142 C   0  0  0  0  0  0  0  0  0  0  0  0
  121.5117  121.4989  143.9499 C   0  0  0  0  0  0  0  0  0  0  0  0
  122.5751  120.7208  144.2729 F   0  0  0  0  0  0  0  0  0  0  0  0
  121.6596  122.7508  143.3779 C   0  0  0  0  0  0  0  0  0  0  0  0
  120.1221  126.9561  139.8813 C   0  0  0  0  0  0  0  0  0  0  0  0
  119.1541  125.9501  139.4134 C   0  0  0  0  0  0  0  0  0  0  0  0
  117.7409  126.2199  139.8458 C   0  0  0  0  0  0  0  0  0  0  0  0
  117.5735  127.6817  140.1950 C   0  0  0  0  0  0  0  0  0  0  0  0
  1  2  1  0
  2  3  1  6
  2  4  1  0
  4  5  1  0
  5  6  1  0
  6  7  1  0
  7  8  1  0
  8  9  1  0
  9 10  1  0
 10 11  2  0
 10 12  1  0
 12 13  1  0
 13 14  2  0
 14 15  1  0
 15 16  1  0
 15 17  2  0
 17 18  1  0
 18 19  1  0
 18 20  2  0
  9 21  1  0
 21 22  1  0
 22 23  1  0
 23 24  1  0
  1  6  2  0
 20 13  1  0
M  END
>  <docking_score>  (3) 
-6.1479999999999997

$$$$
