
     RDKit          3D

 20 21  0  0  0  0  0  0  0  0999 V2000
  120.1515  127.4006  140.4507 O   0  0  0  0  0  0  0  0  0  0  0  0
  120.9718  126.4425  140.6848 C   0  0  0  0  0  0  0  0  0  0  0  0
  121.5054  126.3620  141.9649 N   0  0  0  0  0  0  0  0  0  0  0  0
  122.1788  125.3065  142.6100 C   0  0  0  0  0  0  0  0  0  0  0  0
  123.5035  125.5103  143.0368 C   0  0  0  0  0  0  0  0  0  0  0  0
  124.2615  124.5865  143.6739 C   0  0  0  0  0  0  0  0  0  0  0  0
  125.9182  124.8864  144.1905 Cl  0  0  0  0  0  0  0  0  0  0  0  0
  123.7231  123.3523  143.9353 C   0  0  0  0  0  0  0  0  0  0  0  0
  122.4281  123.1004  143.5382 C   0  0  0  0  0  0  0  0  0  0  0  0
  121.9482  121.8520  143.8310 F   0  0  0  0  0  0  0  0  0  0  0  0
  121.6439  124.0585  142.8781 C   0  0  0  0  0  0  0  0  0  0  0  0
  121.2444  125.5624  139.5967 N   0  0  0  0  0  0  0  0  0  0  0  0
  122.2705  124.5325  139.6584 C   0  0  0  0  0  0  0  0  0  0  0  0
  121.6966  123.1722  139.9066 C   0  0  0  0  0  0  0  0  0  0  0  0
  120.3543  123.0446  139.2514 C   0  0  1  0  0  0  0  0  0  0  0  0
  119.3162  122.9425  140.3523 C   0  0  0  0  0  0  0  0  0  0  0  0
  119.5327  124.0931  141.3394 C   0  0  0  0  0  0  0  0  0  0  0  0
  120.2978  123.6394  142.5324 C   0  0  0  0  0  0  0  0  0  0  0  0
  119.7362  122.8086  143.3327 O   0  0  0  0  0  0  0  0  0  0  0  0
  120.0637  124.1430  138.4553 F   0  0  0  0  0  0  0  0  0  0  0  0
  1  2  2  0
  2  3  1  0
  3  4  1  0
  4  5  2  0
  5  6  1  0
  6  7  1  0
  6  8  2  0
  8  9  1  0
  9 10  1  0
  9 11  2  0
  2 12  1  0
 12 13  1  0
 13 14  1  0
 14 15  1  0
 15 16  1  0
 16 17  1  0
 17 18  1  0
 18 19  2  0
 15 20  1  1
 11  4  1  0
 18 11  1  0
M  END
>  <docking_score>  (1) 
-7.3689999999999998

$$$$

     RDKit          3D

 20 21  0  0  0  0  0  0  0  0999 V2000
  122.5388  123.7402  138.2754 O   0  0  0  0  0  0  0  0  0  0  0  0
  121.8435  124.0642  139.3036 C   0  0  0  0  0  0  0  0  0  0  0  0
  121.7441  123.1267  140.3240 N   0  0  0  0  0  0  0  0  0  0  0  0
  121.3193  123.2702  141.6592 C   0  0  0  0  0  0  0  0  0  0  0  0
  120.1966  122.5425  142.0934 C   0  0  0  0  0  0  0  0  0  0  0  0
  119.6879  122.5811  143.3478 C   0  0  0  0  0  0  0  0  0  0  0  0
  118.2780  121.6514  143.8472 Cl  0  0  0  0  0  0  0  0  0  0  0  0
  120.2921  123.3803  144.2847 C   0  0  0  0  0  0  0  0  0  0  0  0
  121.3965  124.1146  143.9112 C   0  0  0  0  0  0  0  0  0  0  0  0
  121.9552  124.8893  144.8921 F   0  0  0  0  0  0  0  0  0  0  0  0
  121.9224  124.0737  142.6111 C   0  0  0  0  0  0  0  0  0  0  0  0
  121.2475  125.3592  139.2823 N   0  0  0  0  0  0  0  0  0  0  0  0
  120.3029  125.8052  140.2953 C   0  0  0  0  0  0  0  0  0  0  0  0
  120.9376  126.7091  141.3060 C   0  0  0  0  0  0  0  0  0  0  0  0
  122.0039  127.5438  140.6628 C   0  0  1  0  0  0  0  0  0  0  0  0
  123.3385  127.0931  141.2249 C   0  0  0  0  0  0  0  0  0  0  0  0
  123.4362  125.5703  141.0963 C   0  0  0  0  0  0  0  0  0  0  0  0
  123.0930  124.9005  142.3800 C   0  0  0  0  0  0  0  0  0  0  0  0
  123.8866  125.0561  143.3761 O   0  0  0  0  0  0  0  0  0  0  0  0
  122.0174  127.3886  139.2843 F   0  0  0  0  0  0  0  0  0  0  0  0
  1  2  2  0
  2  3  1  0
  3  4  1  0
  4  5  2  0
  5  6  1  0
  6  7  1  0
  6  8  2  0
  8  9  1  0
  9 10  1  0
  9 11  2  0
  2 12  1  0
 12 13  1  0
 13 14  1  0
 14 15  1  0
 15 16  1  0
 16 17  1  0
 17 18  1  0
 18 19  2  0
 15 20  1  6
 11  4  1  0
 18 11  1  0
M  END
>  <docking_score>  (2) 
-6.931

$$$$
