
     RDKit          3D

 27 31  0  0  0  0  0  0  0  0999 V2000
  138.4072  116.5767  137.7096 O   0  0  0  0  0  0  0  0  0  0  0  0
  137.9116  117.6233  137.2243 C   0  0  0  0  0  0  0  0  0  0  0  0
  137.9138  117.7330  135.8269 N   0  0  0  0  0  0  0  0  0  0  0  0
  138.3774  116.8622  134.8626 C   0  0  1  0  0  0  0  0  0  0  0  0
  137.6994  116.3995  133.6584 C   0  0  2  0  0  0  0  0  0  0  0  0
  139.0594  117.1004  133.6186 C   0  0  1  0  0  0  0  0  0  0  0  0
  139.0962  118.3374  132.8785 C   0  0  0  0  0  0  0  0  0  0  0  0
  138.0633  118.8482  132.2690 C   0  0  0  0  0  0  0  0  0  0  0  0
  136.7914  118.1832  132.3048 C   0  0  0  0  0  0  0  0  0  0  0  0
  136.6438  117.0537  132.9513 C   0  0  0  0  0  0  0  0  0  0  0  0
  137.3820  118.6378  138.0290 N   0  0  0  0  0  0  0  0  0  0  0  0
  138.2408  119.3766  138.9284 C   0  0  0  0  0  0  0  0  0  0  0  0
  137.6961  119.2885  140.3345 C   0  0  0  0  0  0  0  0  0  0  0  0
  136.2305  119.4788  140.3896 C   0  0  0  0  0  0  0  0  0  0  0  0
  135.8476  120.9019  140.4577 C   0  0  0  0  0  0  0  0  0  0  0  0
  134.6665  121.4610  140.1198 N   0  0  0  0  0  0  0  0  0  0  0  0
  134.7046  122.7819  140.3271 C   0  0  0  0  0  0  0  0  0  0  0  0
  133.6204  123.7484  140.0945 C   0  0  0  0  0  0  0  0  0  0  0  0
  133.8489  125.0957  140.0035 C   0  0  0  0  0  0  0  0  0  0  0  0
  132.7953  125.9600  139.7780 C   0  0  0  0  0  0  0  0  0  0  0  0
  131.5053  125.4949  139.6425 C   0  0  0  0  0  0  0  0  0  0  0  0
  131.3085  124.1273  139.7391 C   0  0  0  0  0  0  0  0  0  0  0  0
  132.3743  123.3092  139.9613 N   0  0  0  0  0  0  0  0  0  0  0  0
  135.9362  123.0313  140.8014 N   0  0  0  0  0  0  0  0  0  0  0  0
  136.5961  121.9223  140.8733 O   0  0  0  0  0  0  0  0  0  0  0  0
  135.4236  118.7687  139.3692 C   0  0  0  0  0  0  0  0  0  0  0  0
  135.9803  118.9541  137.9905 C   0  0  0  0  0  0  0  0  0  0  0  0
  1  2  2  0
  2  3  1  0
  4  3  1  6
  4  5  1  0
  5  6  1  0
  6  7  1  6
  7  8  2  0
  8  9  1  0
  9 10  2  0
  2 11  1  0
 11 12  1  0
 12 13  1  0
 13 14  1  0
 14 15  1  0
 15 16  2  0
 16 17  1  0
 17 18  1  0
 18 19  2  0
 19 20  1  0
 20 21  2  0
 21 22  1  0
 22 23  2  0
 17 24  2  0
 24 25  1  0
 14 26  1  0
 26 27  1  0
  6  4  1  0
  5 10  1  6
 27 11  1  0
 25 15  1  0
 23 18  1  0
M  END
>  <docking_score>  (1) 
-8.9499999999999993

$$$$

     RDKit          3D

 27 31  0  0  0  0  0  0  0  0999 V2000
  136.1788  121.7296  141.2768 O   0  0  0  0  0  0  0  0  0  0  0  0
  135.1840  121.7335  140.5107 C   0  0  0  0  0  0  0  0  0  0  0  0
  134.8098  120.5014  139.9569 N   0  0  0  0  0  0  0  0  0  0  0  0
  135.3598  119.2462  140.1151 C   0  0  1  0  0  0  0  0  0  0  0  0
  135.4820  118.1797  139.1294 C   0  0  2  0  0  0  0  0  0  0  0  0
  136.6902  118.7560  139.8715 C   0  0  1  0  0  0  0  0  0  0  0  0
  137.6948  119.3670  139.0368 C   0  0  0  0  0  0  0  0  0  0  0  0
  137.6139  119.4354  137.7376 C   0  0  0  0  0  0  0  0  0  0  0  0
  136.4810  118.8877  137.0464 C   0  0  0  0  0  0  0  0  0  0  0  0
  135.5074  118.3119  137.7068 C   0  0  0  0  0  0  0  0  0  0  0  0
  134.4774  122.9042  140.2154 N   0  0  0  0  0  0  0  0  0  0  0  0
  133.0314  122.8925  140.1801 C   0  0  0  0  0  0  0  0  0  0  0  0
  132.5538  123.4030  138.8412 C   0  0  0  0  0  0  0  0  0  0  0  0
  133.2939  124.6024  138.3930 C   0  0  0  0  0  0  0  0  0  0  0  0
  132.7285  125.8516  138.9374 C   0  0  0  0  0  0  0  0  0  0  0  0
  131.4608  126.0835  139.3387 N   0  0  0  0  0  0  0  0  0  0  0  0
  131.3378  127.3414  139.7766 C   0  0  0  0  0  0  0  0  0  0  0  0
  130.1244  127.9818  140.3069 C   0  0  0  0  0  0  0  0  0  0  0  0
  129.0218  127.2614  140.6824 C   0  0  0  0  0  0  0  0  0  0  0  0
  127.9097  127.9121  141.1803 C   0  0  0  0  0  0  0  0  0  0  0  0
  127.8815  129.2838  141.3083 C   0  0  0  0  0  0  0  0  0  0  0  0
  129.0127  129.9825  140.9202 C   0  0  0  0  0  0  0  0  0  0  0  0
  130.0886  129.3031  140.4350 N   0  0  0  0  0  0  0  0  0  0  0  0
  132.5576  127.8862  139.6384 N   0  0  0  0  0  0  0  0  0  0  0  0
  133.3634  127.0038  139.1460 O   0  0  0  0  0  0  0  0  0  0  0  0
  134.7669  124.5808  138.5560 C   0  0  0  0  0  0  0  0  0  0  0  0
  135.1693  124.1308  139.9273 C   0  0  0  0  0  0  0  0  0  0  0  0
  1  2  2  0
  2  3  1  0
  4  3  1  6
  4  5  1  0
  5  6  1  0
  6  7  1  6
  7  8  2  0
  8  9  1  0
  9 10  2  0
  2 11  1  0
 11 12  1  0
 12 13  1  0
 13 14  1  0
 14 15  1  0
 15 16  2  0
 16 17  1  0
 17 18  1  0
 18 19  2  0
 19 20  1  0
 20 21  2  0
 21 22  1  0
 22 23  2  0
 17 24  2  0
 24 25  1  0
 14 26  1  0
 26 27  1  0
  6  4  1  0
  5 10  1  6
 27 11  1  0
 25 15  1  0
 23 18  1  0
M  END
>  <docking_score>  (2) 
-8.0310000000000006

$$$$

     RDKit          3D

 27 31  0  0  0  0  0  0  0  0999 V2000
  137.2390  123.1956  140.7106 O   0  0  0  0  0  0  0  0  0  0  0  0
  136.0961  122.9256  140.2663 C   0  0  0  0  0  0  0  0  0  0  0  0
  135.7331  121.5721  140.2404 N   0  0  0  0  0  0  0  0  0  0  0  0
  136.4340  120.4509  140.6338 C   0  0  1  0  0  0  0  0  0  0  0  0
  136.1513  119.0534  140.3320 C   0  0  2  0  0  0  0  0  0  0  0  0
  137.4874  119.7153  139.9865 C   0  0  1  0  0  0  0  0  0  0  0  0
  137.8205  119.7405  138.5838 C   0  0  0  0  0  0  0  0  0  0  0  0
  137.0624  119.2385  137.6497 C   0  0  0  0  0  0  0  0  0  0  0  0
  135.8129  118.6134  137.9803 C   0  0  0  0  0  0  0  0  0  0  0  0
  135.4100  118.5378  139.2243 C   0  0  0  0  0  0  0  0  0  0  0  0
  135.2203  123.9185  139.8145 N   0  0  0  0  0  0  0  0  0  0  0  0
  133.8262  123.8898  140.1994 C   0  0  0  0  0  0  0  0  0  0  0  0
  132.9594  123.9024  138.9624 C   0  0  0  0  0  0  0  0  0  0  0  0
  133.4265  124.8747  137.9507 C   0  0  0  0  0  0  0  0  0  0  0  0
  132.9016  126.2331  138.1877 C   0  0  0  0  0  0  0  0  0  0  0  0
  132.9304  127.2920  137.3512 N   0  0  0  0  0  0  0  0  0  0  0  0
  132.3490  128.3506  137.9261 C   0  0  0  0  0  0  0  0  0  0  0  0
  132.1684  129.6891  137.3435 C   0  0  0  0  0  0  0  0  0  0  0  0
  131.0420  130.4364  137.5634 C   0  0  0  0  0  0  0  0  0  0  0  0
  130.9253  131.6909  136.9970 C   0  0  0  0  0  0  0  0  0  0  0  0
  131.9249  132.2140  136.2059 C   0  0  0  0  0  0  0  0  0  0  0  0
  133.0508  131.4331  136.0038 C   0  0  0  0  0  0  0  0  0  0  0  0
  133.1270  130.2019  136.5809 N   0  0  0  0  0  0  0  0  0  0  0  0
  131.9581  127.9258  139.1388 N   0  0  0  0  0  0  0  0  0  0  0  0
  132.2875  126.6840  139.2802 O   0  0  0  0  0  0  0  0  0  0  0  0
  134.8838  124.9168  137.6840 C   0  0  0  0  0  0  0  0  0  0  0  0
  135.6809  124.9718  138.9515 C   0  0  0  0  0  0  0  0  0  0  0  0
  1  2  2  0
  2  3  1  0
  4  3  1  6
  4  5  1  0
  5  6  1  0
  6  7  1  6
  7  8  2  0
  8  9  1  0
  9 10  2  0
  2 11  1  0
 11 12  1  0
 12 13  1  0
 13 14  1  0
 14 15  1  0
 15 16  2  0
 16 17  1  0
 17 18  1  0
 18 19  2  0
 19 20  1  0
 20 21  2  0
 21 22  1  0
 22 23  2  0
 17 24  2  0
 24 25  1  0
 14 26  1  0
 26 27  1  0
  6  4  1  0
  5 10  1  6
 27 11  1  0
 25 15  1  0
 23 18  1  0
M  END
>  <docking_score>  (3) 
-8.0220000000000002

$$$$
