
     RDKit          3D

 11 11  0  0  0  0  0  0  0  0999 V2000
  120.6852  125.9731  139.8204 O   0  0  0  0  0  0  0  0  0  0  0  0
  120.5510  125.2534  140.8328 C   0  0  0  0  0  0  0  0  0  0  0  0
  121.4713  125.4352  141.9319 N   0  0  0  0  0  0  0  0  0  0  0  0
  121.4542  124.4280  142.9561 C   0  0  0  0  0  0  0  0  0  0  0  0
  122.5218  124.0493  143.6854 C   0  0  0  0  0  0  0  0  0  0  0  0
  123.8959  124.5228  143.6419 C   0  0  0  0  0  0  0  0  0  0  0  0
  124.7616  124.0161  144.4922 C   0  0  0  0  0  0  0  0  0  0  0  0
  124.3792  123.0737  145.3883 F   0  0  0  0  0  0  0  0  0  0  0  0
  122.3173  126.5937  141.9126 C   0  0  0  0  0  0  0  0  0  0  0  0
  123.7457  126.3580  142.0438 C   0  0  0  0  0  0  0  0  0  0  0  0
  124.4226  125.4920  142.7661 N   0  0  0  0  0  0  0  0  0  0  0  0
  1  2  2  0
  2  3  1  0
  3  4  1  0
  4  5  2  0
  5  6  1  0
  6  7  2  3
  7  8  1  0
  3  9  1  0
  9 10  1  0
 10 11  2  0
 11  6  1  0
M  END
>  <docking_score>  (1) 
-4.2990000000000004

$$$$

     RDKit          3D

 11 11  0  0  0  0  0  0  0  0999 V2000
  141.7077  118.2164  161.9095 O   0  0  0  0  0  0  0  0  0  0  0  0
  141.3276  117.8305  160.7837 C   0  0  0  0  0  0  0  0  0  0  0  0
  140.2720  116.8462  160.7150 N   0  0  0  0  0  0  0  0  0  0  0  0
  140.4308  115.8021  159.7411 C   0  0  0  0  0  0  0  0  0  0  0  0
  139.9713  114.5429  159.8764 C   0  0  0  0  0  0  0  0  0  0  0  0
  139.2362  113.9313  160.9717 C   0  0  0  0  0  0  0  0  0  0  0  0
  138.8612  112.6766  160.8526 C   0  0  0  0  0  0  0  0  0  0  0  0
  139.1543  111.9712  159.7328 F   0  0  0  0  0  0  0  0  0  0  0  0
  139.1628  116.9896  161.6137 C   0  0  0  0  0  0  0  0  0  0  0  0
  138.8422  115.8374  162.4400 C   0  0  0  0  0  0  0  0  0  0  0  0
  138.8685  114.5477  162.1836 N   0  0  0  0  0  0  0  0  0  0  0  0
  1  2  2  0
  2  3  1  0
  3  4  1  0
  4  5  2  0
  5  6  1  0
  6  7  2  3
  7  8  1  0
  3  9  1  0
  9 10  1  0
 10 11  2  0
 11  6  1  0
M  END
>  <docking_score>  (2) 
-3.1030000000000002

$$$$
