
     RDKit          3D

 21 23  0  0  0  0  0  0  0  0999 V2000
  139.7231  113.1529  136.4644 O   0  0  0  0  0  0  0  0  0  0  0  0
  139.2334  114.1674  135.9057 C   0  0  0  0  0  0  0  0  0  0  0  0
  138.4817  115.0327  136.7550 N   0  0  0  0  0  0  0  0  0  0  0  0
  137.8250  116.3009  136.5817 C   0  0  0  0  0  0  0  0  0  0  0  0
  137.5184  116.7441  137.8698 C   0  0  0  0  0  0  0  0  0  0  0  0
  136.8809  117.9318  138.1032 C   0  0  0  0  0  0  0  0  0  0  0  0
  136.4809  118.5183  139.7073 Cl  0  0  0  0  0  0  0  0  0  0  0  0
  136.5289  118.7189  137.0241 C   0  0  0  0  0  0  0  0  0  0  0  0
  136.8297  118.2873  135.7292 C   0  0  0  0  0  0  0  0  0  0  0  0
  136.4549  119.1110  134.7141 F   0  0  0  0  0  0  0  0  0  0  0  0
  137.4731  117.0873  135.5073 C   0  0  0  0  0  0  0  0  0  0  0  0
  139.5427  114.2232  134.5396 N   0  0  0  0  0  0  0  0  0  0  0  0
  139.4555  115.0389  133.3788 C   0  0  1  0  0  0  0  0  0  0  0  0
  139.0617  114.3390  132.1289 C   0  0  0  0  0  0  0  0  0  0  0  0
  138.1583  113.1481  132.3743 C   0  0  0  0  0  0  0  0  0  0  0  0
  136.4575  113.7109  131.9793 S   0  0  0  0  0  0  0  0  0  0  0  0
  135.8417  114.9152  133.6463 S   0  0  0  0  0  0  0  0  0  0  0  0
  136.3646  116.6136  133.3284 C   0  0  0  0  0  0  0  0  0  0  0  0
  137.5990  117.0048  134.0642 C   0  0  2  0  0  0  0  0  0  0  0  0
  138.8307  116.3529  133.5793 C   0  0  0  0  0  0  0  0  0  0  0  0
  139.6192  117.2379  133.2088 O   0  0  0  0  0  0  0  0  0  0  0  0
  1  2  2  0
  2  3  1  0
  3  4  1  0
  4  5  2  0
  5  6  1  0
  6  7  1  0
  6  8  2  0
  8  9  1  0
  9 10  1  0
  9 11  2  0
  2 12  1  0
 12 13  1  0
 13 14  1  6
 14 15  1  0
 15 16  1  0
 16 17  1  0
 17 18  1  0
 19 18  1  1
 19 20  1  0
 20 21  2  0
 11  4  1  0
 19 11  1  0
 20 13  1  0
M  END
>  <docking_score>  (1) 
-7.0860000000000003

$$$$

     RDKit          3D

 21 23  0  0  0  0  0  0  0  0999 V2000
  136.5084  118.8806  137.1035 O   0  0  0  0  0  0  0  0  0  0  0  0
  136.7684  117.8604  136.4160 C   0  0  0  0  0  0  0  0  0  0  0  0
  137.6797  116.9369  137.0091 N   0  0  0  0  0  0  0  0  0  0  0  0
  138.1937  115.6445  136.6414 C   0  0  0  0  0  0  0  0  0  0  0  0
  138.8228  115.1510  137.7861 C   0  0  0  0  0  0  0  0  0  0  0  0
  139.4359  113.9284  137.8153 C   0  0  0  0  0  0  0  0  0  0  0  0
  140.2349  113.2784  139.2352 Cl  0  0  0  0  0  0  0  0  0  0  0  0
  139.4312  113.1564  136.6699 C   0  0  0  0  0  0  0  0  0  0  0  0
  138.8051  113.6383  135.5169 C   0  0  0  0  0  0  0  0  0  0  0  0
  138.8381  112.8269  134.4260 F   0  0  0  0  0  0  0  0  0  0  0  0
  138.1901  114.8731  135.5005 C   0  0  0  0  0  0  0  0  0  0  0  0
  136.0885  117.8580  135.1902 N   0  0  0  0  0  0  0  0  0  0  0  0
  135.8055  117.0723  134.0399 C   0  0  1  0  0  0  0  0  0  0  0  0
  135.8724  117.7880  132.7397 C   0  0  0  0  0  0  0  0  0  0  0  0
  136.8704  118.9274  132.7395 C   0  0  0  0  0  0  0  0  0  0  0  0
  138.3615  118.2965  131.8770 S   0  0  0  0  0  0  0  0  0  0  0  0
  139.3521  117.0176  133.2884 S   0  0  0  0  0  0  0  0  0  0  0  0
  138.6717  115.3555  133.1055 C   0  0  0  0  0  0  0  0  0  0  0  0
  137.6720  115.0023  134.1514 C   0  0  2  0  0  0  0  0  0  0  0  0
  136.3905  115.7251  134.0393 C   0  0  0  0  0  0  0  0  0  0  0  0
  135.4841  114.8891  133.8916 O   0  0  0  0  0  0  0  0  0  0  0  0
  1  2  2  0
  2  3  1  0
  3  4  1  0
  4  5  2  0
  5  6  1  0
  6  7  1  0
  6  8  2  0
  8  9  1  0
  9 10  1  0
  9 11  2  0
  2 12  1  0
 12 13  1  0
 13 14  1  6
 14 15  1  0
 15 16  1  0
 16 17  1  0
 17 18  1  0
 19 18  1  6
 19 20  1  0
 20 21  2  0
 11  4  1  0
 19 11  1  0
 20 13  1  0
M  END
>  <docking_score>  (2) 
-7.0750000000000002

$$$$
