
     RDKit          3D

 20 23  0  0  0  0  0  0  0  0999 V2000
  120.5768  121.1890  144.2371 O   0  0  0  0  0  0  0  0  0  0  0  0
  120.8610  122.1397  143.4668 C   0  0  0  0  0  0  0  0  0  0  0  0
  122.1131  122.7372  143.8101 N   0  0  0  0  0  0  0  0  0  0  0  0
  122.8049  123.8334  143.2085 C   0  0  0  0  0  0  0  0  0  0  0  0
  124.0020  123.9262  143.8801 C   0  0  0  0  0  0  0  0  0  0  0  0
  124.9439  124.8774  143.5749 C   0  0  0  0  0  0  0  0  0  0  0  0
  126.4674  124.9938  144.4311 Cl  0  0  0  0  0  0  0  0  0  0  0  0
  124.6684  125.7586  142.5635 C   0  0  0  0  0  0  0  0  0  0  0  0
  123.4750  125.6894  141.8720 C   0  0  0  0  0  0  0  0  0  0  0  0
  123.2509  126.5843  140.8804 F   0  0  0  0  0  0  0  0  0  0  0  0
  122.5287  124.7334  142.1789 C   0  0  0  0  0  0  0  0  0  0  0  0
  119.8634  122.3722  142.4560 N   0  0  0  0  0  0  0  0  0  0  0  0
  120.0831  122.8453  141.0840 C   0  0  1  0  0  0  0  0  0  0  0  0
  118.9774  122.4306  140.1700 C   0  0  0  0  0  0  0  0  0  0  0  0
  119.0779  123.3583  139.0454 C   0  0  0  0  0  0  0  0  0  0  0  0
  119.7597  124.5492  139.5377 C   0  0  0  0  0  0  0  0  0  0  0  0
  120.0781  124.3349  140.9899 C   0  0  2  0  0  0  0  0  0  0  0  0
  121.4117  124.9488  141.2658 C   0  0  0  0  0  0  0  0  0  0  0  0
  121.5952  125.9166  140.4778 O   0  0  0  0  0  0  0  0  0  0  0  0
  119.3669  124.4539  138.3160 N   0  0  0  0  0  4  0  0  0  0  0  0
  1  2  2  0
  2  3  1  0
  3  4  1  0
  4  5  2  0
  5  6  1  0
  6  7  1  0
  6  8  2  0
  8  9  1  0
  9 10  1  0
  9 11  2  0
  2 12  1  0
 12 13  1  0
 13 14  1  6
 14 15  1  0
 15 16  1  0
 16 17  1  0
 17 18  1  6
 18 19  2  0
 15 20  2  0
 11  4  1  0
 18 11  1  0
 17 13  1  0
 16 20  2  0
M  CHG  1  20   1
M  END
>  <docking_score>  (1) 
-7.2359999999999998

$$$$

     RDKit          3D

 20 23  0  0  0  0  0  0  0  0999 V2000
  141.9292  131.5013  138.6023 O   0  0  0  0  0  0  0  0  0  0  0  0
  141.6651  132.0446  137.5009 C   0  0  0  0  0  0  0  0  0  0  0  0
  140.2599  132.0475  137.2405 N   0  0  0  0  0  0  0  0  0  0  0  0
  139.5333  132.5538  136.1189 C   0  0  0  0  0  0  0  0  0  0  0  0
  138.2051  132.3758  136.4301 C   0  0  0  0  0  0  0  0  0  0  0  0
  137.1945  132.7488  135.5788 C   0  0  0  0  0  0  0  0  0  0  0  0
  135.5042  132.5213  135.9770 Cl  0  0  0  0  0  0  0  0  0  0  0  0
  137.5357  133.3172  134.3806 C   0  0  0  0  0  0  0  0  0  0  0  0
  138.8606  133.5083  134.0414 C   0  0  0  0  0  0  0  0  0  0  0  0
  139.1451  134.0747  132.8443 F   0  0  0  0  0  0  0  0  0  0  0  0
  139.8759  133.1334  134.8970 C   0  0  0  0  0  0  0  0  0  0  0  0
  142.8326  132.5140  136.8024 N   0  0  0  0  0  0  0  0  0  0  0  0
  142.9339  133.6943  135.9357 C   0  0  1  0  0  0  0  0  0  0  0  0
  144.3344  134.2065  135.8568 C   0  0  0  0  0  0  0  0  0  0  0  0
  144.3537  135.0033  134.6319 C   0  0  0  0  0  0  0  0  0  0  0  0
  143.2755  134.5065  133.7857 C   0  0  0  0  0  0  0  0  0  0  0  0
  142.5904  133.3869  134.5162 C   0  0  2  0  0  0  0  0  0  0  0  0
  141.1270  133.4759  134.2298 C   0  0  0  0  0  0  0  0  0  0  0  0
  140.9565  133.9932  133.0919 O   0  0  0  0  0  0  0  0  0  0  0  0
  144.0361  135.4741  133.4099 N   0  0  0  0  0  4  0  0  0  0  0  0
  1  2  2  0
  2  3  1  0
  3  4  1  0
  4  5  2  0
  5  6  1  0
  6  7  1  0
  6  8  2  0
  8  9  1  0
  9 10  1  0
  9 11  2  0
  2 12  1  0
 12 13  1  0
 13 14  1  6
 14 15  1  0
 15 16  1  0
 16 17  1  0
 17 18  1  1
 18 19  2  0
 15 20  2  0
 11  4  1  0
 18 11  1  0
 17 13  1  0
 16 20  2  0
M  CHG  1  20   1
M  END
>  <docking_score>  (2) 
-7.2210000000000001

$$$$
