
     RDKit          3D

 21 21  0  0  0  0  0  0  0  0999 V2000
  143.3828  134.4829  133.7070 C   0  0  0  0  0  0  0  0  0  0  0  0
  143.8934  135.2920  134.8713 C   0  0  0  0  0  0  0  0  0  0  0  0
  143.6626  134.6527  136.2109 C   0  0  2  0  0  0  0  0  0  0  0  0
  142.8490  133.3809  135.9558 C   0  0  0  0  0  0  0  0  0  0  0  0
  142.8517  135.5295  137.1089 C   0  0  2  0  0  0  0  0  0  0  0  0
  143.5618  135.8603  138.3166 N   0  0  0  0  0  0  0  0  0  0  0  0
  144.0845  137.1646  138.5293 C   0  0  0  0  0  0  0  0  0  0  0  0
  143.9022  138.0376  137.6168 O   0  0  0  0  0  0  0  0  0  0  0  0
  144.7851  137.4892  139.7113 N   0  0  0  0  0  0  0  0  0  0  0  0
  145.1419  136.4699  140.6611 C   0  0  0  0  0  0  0  0  0  0  0  0
  146.5850  136.5630  141.0917 C   0  0  0  0  0  0  0  0  0  0  0  0
  147.1428  137.9165  141.0916 C   0  0  0  0  0  0  0  0  0  0  0  0
  146.6400  138.9220  140.1565 C   0  0  0  0  0  0  0  0  0  0  0  0
  145.1468  138.8530  139.9850 C   0  0  0  0  0  0  0  0  0  0  0  0
  147.9879  138.3304  142.2216 C   0  0  0  0  0  0  0  0  0  0  0  0
  148.0464  137.3791  143.3027 N   0  0  0  0  0  0  0  0  0  0  0  0
  149.4389  137.2847  143.7147 C   0  0  0  0  0  0  0  0  0  0  0  0
  149.6736  138.3661  144.7454 C   0  0  0  0  0  0  0  0  0  0  0  0
  149.6370  135.9078  144.3016 C   0  0  0  0  0  0  0  0  0  0  0  0
  141.1783  134.9951  137.3570 S   0  0  0  0  0  0  0  0  0  0  0  0
  140.9342  134.5770  138.8098 O   0  0  0  0  0  0  0  0  0  0  0  0
  1  2  1  0
  2  3  1  0
  3  4  1  6
  3  5  1  0
  5  6  1  1
  6  7  1  0
  7  8  2  0
  7  9  1  0
  9 10  1  0
 10 11  1  0
 11 12  1  0
 12 13  1  0
 13 14  1  0
 12 15  1  0
 15 16  1  0
 16 17  1  0
 17 18  1  0
 17 19  1  0
  5 20  1  0
 20 21  2  0
 14  9  1  0
M  END
>  <docking_score>  (1) 
-5.423

$$$$

     RDKit          3D

 21 21  0  0  0  0  0  0  0  0999 V2000
  141.8607  132.1065  137.4754 C   0  0  0  0  0  0  0  0  0  0  0  0
  141.2789  133.0517  138.4946 C   0  0  0  0  0  0  0  0  0  0  0  0
  140.6134  132.3688  139.6553 C   0  0  2  0  0  0  0  0  0  0  0  0
  139.1161  132.3241  139.3383 C   0  0  0  0  0  0  0  0  0  0  0  0
  140.7792  133.1445  140.9217 C   0  0  2  0  0  0  0  0  0  0  0  0
  141.8230  134.1298  140.8122 N   0  0  0  0  0  0  0  0  0  0  0  0
  141.6585  135.4383  141.3416 C   0  0  0  0  0  0  0  0  0  0  0  0
  140.5560  135.7139  141.9220 O   0  0  0  0  0  0  0  0  0  0  0  0
  142.6795  136.4071  141.2310 N   0  0  0  0  0  0  0  0  0  0  0  0
  143.8795  136.3073  142.0174 C   0  0  0  0  0  0  0  0  0  0  0  0
  145.1276  136.4977  141.1912 C   0  0  0  0  0  0  0  0  0  0  0  0
  144.9739  137.3847  140.0368 C   0  0  0  0  0  0  0  0  0  0  0  0
  143.6812  137.5028  139.3635 C   0  0  0  0  0  0  0  0  0  0  0  0
  142.5280  137.5164  140.3298 C   0  0  0  0  0  0  0  0  0  0  0  0
  146.0350  138.3626  139.7534 C   0  0  0  0  0  0  0  0  0  0  0  0
  146.4656  139.1245  140.8985 N   0  0  0  0  0  0  0  0  0  0  0  0
  147.9008  138.9235  141.0312 C   0  0  0  0  0  0  0  0  0  0  0  0
  148.5421  140.2927  141.0612 C   0  0  0  0  0  0  0  0  0  0  0  0
  148.1281  138.1770  142.3236 C   0  0  0  0  0  0  0  0  0  0  0  0
  140.8438  132.1583  142.3949 S   0  0  0  0  0  0  0  0  0  0  0  0
  142.2127  132.2567  143.0742 O   0  0  0  0  0  0  0  0  0  0  0  0
  1  2  1  0
  2  3  1  0
  3  4  1  6
  3  5  1  0
  5  6  1  6
  6  7  1  0
  7  8  2  0
  7  9  1  0
  9 10  1  0
 10 11  1  0
 11 12  1  0
 12 13  1  0
 13 14  1  0
 12 15  1  0
 15 16  1  0
 16 17  1  0
 17 18  1  0
 17 19  1  0
  5 20  1  0
 20 21  2  0
 14  9  1  0
M  END
>  <docking_score>  (2) 
-5.4100000000000001

$$$$

     RDKit          3D

 21 21  0  0  0  0  0  0  0  0999 V2000
  137.0548  118.8650  132.6048 C   0  0  0  0  0  0  0  0  0  0  0  0
  136.5071  117.6008  131.9943 C   0  0  0  0  0  0  0  0  0  0  0  0
  137.3535  116.3843  132.2396 C   0  0  2  0  0  0  0  0  0  0  0  0
  137.4760  115.6572  130.8976 C   0  0  0  0  0  0  0  0  0  0  0  0
  136.7024  115.4428  133.2002 C   0  0  2  0  0  0  0  0  0  0  0  0
  136.3606  116.0937  134.4379 N   0  0  0  0  0  0  0  0  0  0  0  0
  137.3550  116.4092  135.4028 C   0  0  0  0  0  0  0  0  0  0  0  0
  138.5645  116.1007  135.1373 O   0  0  0  0  0  0  0  0  0  0  0  0
  137.0206  117.0434  136.6190 N   0  0  0  0  0  0  0  0  0  0  0  0
  137.8919  116.9572  137.7599 C   0  0  0  0  0  0  0  0  0  0  0  0
  138.1367  118.3009  138.4012 C   0  0  0  0  0  0  0  0  0  0  0  0
  137.0295  119.2513  138.2836 C   0  0  0  0  0  0  0  0  0  0  0  0
  136.1261  119.1939  137.1352 C   0  0  0  0  0  0  0  0  0  0  0  0
  135.7933  117.7824  136.7346 C   0  0  0  0  0  0  0  0  0  0  0  0
  136.6634  120.0555  139.4591 C   0  0  0  0  0  0  0  0  0  0  0  0
  135.7998  121.1731  139.1719 N   0  0  0  0  0  0  0  0  0  0  0  0
  135.1612  121.5531  140.4232 C   0  0  0  0  0  0  0  0  0  0  0  0
  133.7014  121.8058  140.1203 C   0  0  0  0  0  0  0  0  0  0  0  0
  135.3365  120.3991  141.3808 C   0  0  0  0  0  0  0  0  0  0  0  0
  137.5267  113.8830  133.3871 S   0  0  0  0  0  0  0  0  0  0  0  0
  136.6913  112.7364  132.8105 O   0  0  0  0  0  0  0  0  0  0  0  0
  1  2  1  0
  2  3  1  0
  3  4  1  6
  3  5  1  0
  5  6  1  1
  6  7  1  0
  7  8  2  0
  7  9  1  0
  9 10  1  0
 10 11  1  0
 11 12  1  0
 12 13  1  0
 13 14  1  0
 12 15  1  0
 15 16  1  0
 16 17  1  0
 17 18  1  0
 17 19  1  0
  5 20  1  0
 20 21  2  0
 14  9  1  0
M  END
>  <docking_score>  (3) 
-5.3970000000000002

$$$$
