
     RDKit          3D

 27 29  0  0  0  0  0  0  0  0999 V2000
  142.1943  135.2644  137.0921 O   0  0  0  0  0  0  0  0  0  0  0  0
  143.2467  135.2380  136.4276 C   0  0  0  0  0  0  0  0  0  0  0  0
  143.3000  134.4144  135.2742 N   0  0  0  0  0  0  0  0  0  0  0  0
  142.1472  133.6602  134.9360 C   0  0  0  0  0  0  0  0  0  0  0  0
  141.4179  134.0735  133.8412 C   0  0  0  0  0  0  0  0  0  0  0  0
  140.2833  133.4444  133.3964 C   0  0  0  0  0  0  0  0  0  0  0  0
  139.3998  134.0231  131.9929 Cl  0  0  0  0  0  0  0  0  0  0  0  0
  139.8624  132.3227  134.1103 C   0  0  0  0  0  0  0  0  0  0  0  0
  140.5645  131.8786  135.2101 C   0  0  0  0  0  0  0  0  0  0  0  0
  140.0949  130.7845  135.8508 F   0  0  0  0  0  0  0  0  0  0  0  0
  141.6991  132.5536  135.6093 C   0  0  0  0  0  0  0  0  0  0  0  0
  144.3371  136.0411  136.8695 N   0  0  0  0  0  0  0  0  0  0  0  0
  144.2902  136.8717  138.0284 C   0  0  0  0  0  0  0  0  0  0  0  0
  144.9876  136.2506  139.2215 C   0  0  1  0  0  0  0  0  0  0  0  0
  146.2087  137.1202  139.5580 C   0  0  0  0  0  0  0  0  0  0  0  0
  147.8844  137.3084  139.3149 S   0  0  0  0  0  0  0  0  0  0  0  0
  148.1401  138.8221  140.3195 C   0  0  0  0  0  0  0  0  0  0  0  0
  146.7647  139.0114  140.7601 C   0  0  0  0  0  0  0  0  0  0  0  0
  145.8562  138.1526  140.3612 C   0  0  0  0  0  0  0  0  0  0  0  0
  144.3388  138.0127  140.6035 C   0  0  0  0  0  0  0  0  0  0  0  0
  144.1393  136.5219  140.4452 C   0  0  1  0  0  0  0  0  0  0  0  0
  142.7174  136.3439  140.1318 N   0  0  0  0  0  0  0  0  0  0  0  0
  141.7052  136.7191  141.0525 C   0  0  0  0  0  0  0  0  0  0  0  0
  140.9562  135.8301  141.6968 C   0  0  0  0  0  0  0  0  0  0  0  0
  141.1429  134.3584  141.4826 C   0  0  0  0  0  0  0  0  0  0  0  0
  141.9749  133.8909  142.4939 O   0  0  0  0  0  0  0  0  0  0  0  0
  142.6191  132.3997  141.9686 Cl  0  0  0  0  0  0  0  0  0  0  0  0
  1  2  2  0
  2  3  1  0
  3  4  1  0
  4  5  2  0
  5  6  1  0
  6  7  1  0
  6  8  2  0
  8  9  1  0
  9 10  1  0
  9 11  2  0
  2 12  1  0
 12 13  1  0
 14 13  1  6
 14 15  1  0
 15 16  1  0
 16 17  1  0
 17 18  2  0
 18 19  1  0
 19 20  1  0
 20 21  1  0
 21 22  1  6
 22 23  1  0
 23 24  2  3
 24 25  1  0
 25 26  1  0
 26 27  1  0
 11  4  1  0
 21 14  1  0
 15 19  2  0
M  END
>  <docking_score>  (1) 
-7.226

$$$$

     RDKit          3D

 27 29  0  0  0  0  0  0  0  0999 V2000
  135.0014  115.4595  133.5595 O   0  0  0  0  0  0  0  0  0  0  0  0
  135.8837  114.5843  133.4870 C   0  0  0  0  0  0  0  0  0  0  0  0
  135.7826  113.6019  132.4692 N   0  0  0  0  0  0  0  0  0  0  0  0
  134.6770  113.6672  131.5828 C   0  0  0  0  0  0  0  0  0  0  0  0
  133.5666  112.9128  131.8978 C   0  0  0  0  0  0  0  0  0  0  0  0
  132.4263  112.8760  131.1368 C   0  0  0  0  0  0  0  0  0  0  0  0
  131.0450  111.8923  131.5951 Cl  0  0  0  0  0  0  0  0  0  0  0  0
  132.4132  113.6562  129.9809 C   0  0  0  0  0  0  0  0  0  0  0  0
  133.5036  114.4238  129.6323 C   0  0  0  0  0  0  0  0  0  0  0  0
  133.4164  115.1537  128.4975 F   0  0  0  0  0  0  0  0  0  0  0  0
  134.6227  114.4196  130.4385 C   0  0  0  0  0  0  0  0  0  0  0  0
  136.9454  114.6247  134.4359 N   0  0  0  0  0  0  0  0  0  0  0  0
  137.0534  115.6099  135.4621 C   0  0  0  0  0  0  0  0  0  0  0  0
  138.1839  116.5883  135.2168 C   0  0  1  0  0  0  0  0  0  0  0  0
  138.0192  117.1512  133.7967 C   0  0  0  0  0  0  0  0  0  0  0  0
  138.4964  116.9707  132.1712 S   0  0  0  0  0  0  0  0  0  0  0  0
  137.5303  118.3513  131.4456 C   0  0  0  0  0  0  0  0  0  0  0  0
  136.8982  118.8254  132.6693 C   0  0  0  0  0  0  0  0  0  0  0  0
  137.1688  118.2059  133.7939 C   0  0  0  0  0  0  0  0  0  0  0  0
  136.7156  118.3989  135.2562 C   0  0  0  0  0  0  0  0  0  0  0  0
  137.8950  117.8386  136.0192 C   0  0  1  0  0  0  0  0  0  0  0  0
  137.3773  117.4869  137.3459 N   0  0  0  0  0  0  0  0  0  0  0  0
  137.8264  118.1537  138.5149 C   0  0  0  0  0  0  0  0  0  0  0  0
  137.0923  119.0620  139.1494 C   0  0  0  0  0  0  0  0  0  0  0  0
  135.7275  119.4377  138.6568 C   0  0  0  0  0  0  0  0  0  0  0  0
  135.0502  120.0329  139.7153 O   0  0  0  0  0  0  0  0  0  0  0  0
  136.2283  120.6622  140.7785 Cl  0  0  0  0  0  0  0  0  0  0  0  0
  1  2  2  0
  2  3  1  0
  3  4  1  0
  4  5  2  0
  5  6  1  0
  6  7  1  0
  6  8  2  0
  8  9  1  0
  9 10  1  0
  9 11  2  0
  2 12  1  0
 12 13  1  0
 14 13  1  1
 14 15  1  0
 15 16  1  0
 16 17  1  0
 17 18  2  0
 18 19  1  0
 19 20  1  0
 20 21  1  0
 21 22  1  1
 22 23  1  0
 23 24  2  3
 24 25  1  0
 25 26  1  0
 26 27  1  0
 11  4  1  0
 21 14  1  0
 15 19  2  0
M  END
>  <docking_score>  (2) 
-6.7560000000000002

$$$$

     RDKit          3D

 27 29  0  0  0  0  0  0  0  0999 V2000
  144.6837  136.5547  138.6482 O   0  0  0  0  0  0  0  0  0  0  0  0
  145.5533  136.1575  137.8507 C   0  0  0  0  0  0  0  0  0  0  0  0
  146.9121  136.4583  138.1239 N   0  0  0  0  0  0  0  0  0  0  0  0
  147.2115  137.1991  139.2960 C   0  0  0  0  0  0  0  0  0  0  0  0
  147.7917  136.5183  140.3453 C   0  0  0  0  0  0  0  0  0  0  0  0
  148.1360  137.1012  141.5380 C   0  0  0  0  0  0  0  0  0  0  0  0
  148.8732  136.1757  142.8362 Cl  0  0  0  0  0  0  0  0  0  0  0  0
  147.8737  138.4643  141.6734 C   0  0  0  0  0  0  0  0  0  0  0  0
  147.2947  139.1794  140.6471 C   0  0  0  0  0  0  0  0  0  0  0  0
  147.0712  140.4970  140.8525 F   0  0  0  0  0  0  0  0  0  0  0  0
  146.9707  138.5371  139.4704 C   0  0  0  0  0  0  0  0  0  0  0  0
  145.1268  135.4218  136.7079 N   0  0  0  0  0  0  0  0  0  0  0  0
  143.7620  135.1157  136.4271 C   0  0  0  0  0  0  0  0  0  0  0  0
  143.5448  134.6734  134.9944 C   0  0  1  0  0  0  0  0  0  0  0  0
  144.7421  133.8021  134.5843 C   0  0  0  0  0  0  0  0  0  0  0  0
  146.2642  133.8114  133.8191 S   0  0  0  0  0  0  0  0  0  0  0  0
  146.6749  132.0326  134.0014 C   0  0  0  0  0  0  0  0  0  0  0  0
  145.4668  131.6129  134.6987 C   0  0  0  0  0  0  0  0  0  0  0  0
  144.5506  132.5150  134.9611 C   0  0  0  0  0  0  0  0  0  0  0  0
  143.1755  132.4696  135.6598 C   0  0  0  0  0  0  0  0  0  0  0  0
  142.4561  133.6221  134.9956 C   0  0  1  0  0  0  0  0  0  0  0  0
  141.3799  134.0011  135.9176 N   0  0  0  0  0  0  0  0  0  0  0  0
  140.3895  133.0685  136.3204 C   0  0  0  0  0  0  0  0  0  0  0  0
  139.1937  132.9984  135.7446 C   0  0  0  0  0  0  0  0  0  0  0  0
  138.8198  133.9156  134.6196 C   0  0  0  0  0  0  0  0  0  0  0  0
  138.6399  133.1331  133.4844 O   0  0  0  0  0  0  0  0  0  0  0  0
  139.5530  133.8458  132.2302 Cl  0  0  0  0  0  0  0  0  0  0  0  0
  1  2  2  0
  2  3  1  0
  3  4  1  0
  4  5  2  0
  5  6  1  0
  6  7  1  0
  6  8  2  0
  8  9  1  0
  9 10  1  0
  9 11  2  0
  2 12  1  0
 12 13  1  0
 14 13  1  1
 14 15  1  0
 15 16  1  0
 16 17  1  0
 17 18  2  0
 18 19  1  0
 19 20  1  0
 20 21  1  0
 21 22  1  1
 22 23  1  0
 23 24  2  3
 24 25  1  0
 25 26  1  0
 26 27  1  0
 11  4  1  0
 21 14  1  0
 15 19  2  0
M  END
>  <docking_score>  (3) 
-6.5499999999999998

$$$$
