
     RDKit          3D

 19 21  0  0  0  0  0  0  0  0999 V2000
  139.5989  114.2283  137.3969 O   0  0  0  0  0  0  0  0  0  0  0  0
  139.1015  115.2241  136.7978 C   0  0  0  0  0  0  0  0  0  0  0  0
  139.3211  115.2017  135.3731 N   0  0  0  0  0  0  0  0  0  0  0  0
  138.5544  115.7533  134.2896 C   0  0  0  0  0  0  0  0  0  0  0  0
  138.7334  114.9274  133.2053 C   0  0  0  0  0  0  0  0  0  0  0  0
  138.1114  115.1977  131.9863 C   0  0  0  0  0  0  0  0  0  0  0  0
  138.3282  114.1560  130.5941 Cl  0  0  0  0  0  0  0  0  0  0  0  0
  137.3155  116.3213  131.9184 C   0  0  0  0  0  0  0  0  0  0  0  0
  137.1389  117.1543  133.0231 C   0  0  0  0  0  0  0  0  0  0  0  0
  136.3597  118.2615  132.9705 F   0  0  0  0  0  0  0  0  0  0  0  0
  137.7579  116.8779  134.2217 C   0  0  0  0  0  0  0  0  0  0  0  0
  138.4332  116.1557  137.6367 N   0  0  0  0  0  0  0  0  0  0  0  0
  137.2000  116.9205  137.3882 C   0  0  1  0  0  0  0  0  0  0  0  0
  136.5521  117.3747  138.6517 C   0  0  0  0  0  0  0  0  0  0  0  0
  135.6388  118.4970  138.1533 C   0  0  0  0  0  0  0  0  0  0  0  0
  136.4376  119.1850  137.0499 C   0  0  0  0  0  0  0  0  0  0  0  0
  137.4834  118.1756  136.6142 C   0  0  2  0  0  0  0  0  0  0  0  0
  137.3741  117.9282  135.1643 C   0  0  0  0  0  0  0  0  0  0  0  0
  136.7957  118.8570  134.5282 O   0  0  0  0  0  0  0  0  0  0  0  0
  1  2  2  0
  2  3  1  0
  3  4  1  0
  4  5  2  0
  5  6  1  0
  6  7  1  0
  6  8  2  0
  8  9  1  0
  9 10  1  0
  9 11  2  0
  2 12  1  0
 12 13  1  0
 13 14  1  1
 14 15  1  0
 15 16  1  0
 17 16  1  1
 17 18  1  0
 18 19  2  0
 11  4  1  0
 18 11  1  0
 17 13  1  0
M  END
>  <docking_score>  (1) 
-7.0860000000000003

$$$$

     RDKit          3D

 19 21  0  0  0  0  0  0  0  0999 V2000
  122.2424  128.2456  140.5538 O   0  0  0  0  0  0  0  0  0  0  0  0
  121.9108  127.0287  140.4697 C   0  0  0  0  0  0  0  0  0  0  0  0
  122.7864  126.1463  141.1998 N   0  0  0  0  0  0  0  0  0  0  0  0
  122.5428  124.8716  141.8180 C   0  0  0  0  0  0  0  0  0  0  0  0
  123.3764  124.7843  142.9077 C   0  0  0  0  0  0  0  0  0  0  0  0
  123.3763  123.6524  143.7229 C   0  0  0  0  0  0  0  0  0  0  0  0
  124.4318  123.5239  145.1157 Cl  0  0  0  0  0  0  0  0  0  0  0  0
  122.5096  122.6334  143.3894 C   0  0  0  0  0  0  0  0  0  0  0  0
  121.6670  122.7297  142.2822 C   0  0  0  0  0  0  0  0  0  0  0  0
  120.8104  121.7362  141.9428 F   0  0  0  0  0  0  0  0  0  0  0  0
  121.6755  123.8519  141.4842 C   0  0  0  0  0  0  0  0  0  0  0  0
  120.7557  126.7755  139.6823 N   0  0  0  0  0  0  0  0  0  0  0  0
  119.6712  125.8038  139.8991 C   0  0  1  0  0  0  0  0  0  0  0  0
  118.4225  126.1796  139.1764 C   0  0  0  0  0  0  0  0  0  0  0  0
  117.6621  124.8518  139.1469 C   0  0  0  0  0  0  0  0  0  0  0  0
  118.7413  123.7921  138.9441 C   0  0  0  0  0  0  0  0  0  0  0  0
  120.0411  124.4471  139.3726 C   0  0  2  0  0  0  0  0  0  0  0  0
  120.6910  123.6413  140.4232 C   0  0  0  0  0  0  0  0  0  0  0  0
  120.3208  122.4312  140.4433 O   0  0  0  0  0  0  0  0  0  0  0  0
  1  2  2  0
  2  3  1  0
  3  4  1  0
  4  5  2  0
  5  6  1  0
  6  7  1  0
  6  8  2  0
  8  9  1  0
  9 10  1  0
  9 11  2  0
  2 12  1  0
 12 13  1  0
 13 14  1  6
 14 15  1  0
 15 16  1  0
 17 16  1  1
 17 18  1  0
 18 19  2  0
 11  4  1  0
 18 11  1  0
 17 13  1  0
M  END
>  <docking_score>  (2) 
-6.952

$$$$

     RDKit          3D

 19 21  0  0  0  0  0  0  0  0999 V2000
  140.2976  113.3356  134.5008 O   0  0  0  0  0  0  0  0  0  0  0  0
  139.6248  114.4019  134.4103 C   0  0  0  0  0  0  0  0  0  0  0  0
  139.1160  114.6453  133.0836 N   0  0  0  0  0  0  0  0  0  0  0  0
  137.9473  115.3515  132.6341 C   0  0  0  0  0  0  0  0  0  0  0  0
  137.5267  114.7422  131.4757 C   0  0  0  0  0  0  0  0  0  0  0  0
  136.4025  115.2021  130.7899 C   0  0  0  0  0  0  0  0  0  0  0  0
  135.8522  114.4378  129.3122 Cl  0  0  0  0  0  0  0  0  0  0  0  0
  135.7374  116.2863  131.3217 C   0  0  0  0  0  0  0  0  0  0  0  0
  136.1705  116.8989  132.4975 C   0  0  0  0  0  0  0  0  0  0  0  0
  135.5266  117.9649  133.0312 F   0  0  0  0  0  0  0  0  0  0  0  0
  137.2818  116.4365  133.1663 C   0  0  0  0  0  0  0  0  0  0  0  0
  139.5051  115.1394  135.6187 N   0  0  0  0  0  0  0  0  0  0  0  0
  138.3519  115.8857  136.1481 C   0  0  1  0  0  0  0  0  0  0  0  0
  138.4324  116.0783  137.6243 C   0  0  0  0  0  0  0  0  0  0  0  0
  137.4541  117.2339  137.8465 C   0  0  0  0  0  0  0  0  0  0  0  0
  137.6448  118.1412  136.6344 C   0  0  0  0  0  0  0  0  0  0  0  0
  138.2864  117.2701  135.5705 C   0  0  2  0  0  0  0  0  0  0  0  0
  137.4669  117.2836  134.3443 C   0  0  0  0  0  0  0  0  0  0  0  0
  136.7019  118.2874  134.2502 O   0  0  0  0  0  0  0  0  0  0  0  0
  1  2  2  0
  2  3  1  0
  3  4  1  0
  4  5  2  0
  5  6  1  0
  6  7  1  0
  6  8  2  0
  8  9  1  0
  9 10  1  0
  9 11  2  0
  2 12  1  0
 12 13  1  0
 13 14  1  1
 14 15  1  0
 15 16  1  0
 17 16  1  1
 17 18  1  0
 18 19  2  0
 11  4  1  0
 18 11  1  0
 17 13  1  0
M  END
>  <docking_score>  (3) 
-6.907

$$$$
