
     RDKit          3D

 27 30  0  0  0  0  0  0  0  0999 V2000
  140.3902  134.5703  135.8681 O   0  0  0  0  0  0  0  0  0  0  0  0
  141.1632  133.5532  135.8816 C   0  0  0  0  0  0  0  0  0  0  0  0
  141.0165  132.6687  136.9654 N   0  0  0  0  0  0  0  0  0  0  0  0
  140.0313  132.9201  138.0013 C   0  0  0  0  0  0  0  0  0  0  0  0
  140.3690  132.0222  139.1689 C   0  0  2  0  0  0  0  0  0  0  0  0
  139.4214  131.8968  140.3138 C   0  0  0  0  0  0  0  0  0  0  0  0
  140.6641  132.6981  140.5012 C   0  0  2  0  0  0  0  0  0  0  0  0
  140.6308  134.1564  140.4565 C   0  0  0  0  0  0  0  0  0  0  0  0
  141.4487  134.8920  141.1481 C   0  0  0  0  0  0  0  0  0  0  0  0
  142.4408  134.2922  142.0036 C   0  0  0  0  0  0  0  0  0  0  0  0
  142.5414  133.0011  142.1040 C   0  0  0  0  0  0  0  0  0  0  0  0
  141.6874  132.0800  141.3835 C   0  0  0  0  0  0  0  0  0  0  0  0
  142.1083  133.3717  134.8275 N   0  0  0  0  0  0  0  0  0  0  0  0
  142.1762  134.3600  133.7424 C   0  0  0  0  0  0  0  0  0  0  0  0
  143.6411  134.6200  133.4266 C   0  0  0  0  0  0  0  0  0  0  0  0
  144.5480  133.8450  134.3917 C   0  0  0  0  0  0  0  0  0  0  0  0
  145.1093  134.8054  135.4007 C   0  0  0  0  0  0  0  0  0  0  0  0
  144.7764  134.9555  136.6905 N   0  0  0  0  0  0  0  0  0  0  0  0
  145.5292  135.9210  137.1969 C   0  0  0  0  0  0  0  0  0  0  0  0
  145.5335  136.4491  138.5704 C   0  0  0  0  0  0  0  0  0  0  0  0
  144.3495  136.6851  139.2129 C   0  0  0  0  0  0  0  0  0  0  0  0
  144.3484  137.1792  140.4983 C   0  0  0  0  0  0  0  0  0  0  0  0
  145.5474  137.4252  141.1091 C   0  0  0  0  0  0  0  0  0  0  0  0
  146.7442  137.1802  140.4429 C   0  0  0  0  0  0  0  0  0  0  0  0
  146.6732  136.7008  139.1976 N   0  0  0  0  0  0  0  0  0  0  0  0
  146.3228  136.3540  136.1963 N   0  0  0  0  0  0  0  0  0  0  0  0
  146.0527  135.6705  135.1299 O   0  0  0  0  0  0  0  0  0  0  0  0
  1  2  2  0
  2  3  1  0
  3  4  1  0
  5  4  1  6
  5  6  1  0
  7  6  1  1
  7  8  1  0
  8  9  2  0
  9 10  1  0
 10 11  2  0
 11 12  1  0
  2 13  1  0
 13 14  1  0
 14 15  1  0
 15 16  1  0
 16 17  1  0
 17 18  2  0
 18 19  1  0
 19 20  1  0
 20 21  2  0
 21 22  1  0
 22 23  2  0
 23 24  1  0
 24 25  2  0
 19 26  2  0
 26 27  1  0
  7  5  1  0
 12  7  1  0
 27 17  1  0
 25 20  1  0
M  END
>  <docking_score>  (1) 
-6.4029999999999996

$$$$

     RDKit          3D

 27 30  0  0  0  0  0  0  0  0999 V2000
  126.4203  125.8128  144.6174 O   0  0  0  0  0  0  0  0  0  0  0  0
  126.4131  125.2613  143.4651 C   0  0  0  0  0  0  0  0  0  0  0  0
  125.1540  125.0788  142.8653 N   0  0  0  0  0  0  0  0  0  0  0  0
  123.9411  125.5034  143.5402 C   0  0  0  0  0  0  0  0  0  0  0  0
  123.2833  124.2646  144.1023 C   0  0  2  0  0  0  0  0  0  0  0  0
  123.5741  122.9283  143.5069 C   0  0  0  0  0  0  0  0  0  0  0  0
  122.2564  123.5644  143.2224 C   0  0  2  0  0  0  0  0  0  0  0  0
  122.0032  124.2286  141.9479 C   0  0  0  0  0  0  0  0  0  0  0  0
  120.8222  124.2689  141.4074 C   0  0  0  0  0  0  0  0  0  0  0  0
  119.6919  123.6501  142.0517 C   0  0  0  0  0  0  0  0  0  0  0  0
  119.8263  123.0368  143.1888 C   0  0  0  0  0  0  0  0  0  0  0  0
  121.0904  122.9263  143.8864 C   0  0  0  0  0  0  0  0  0  0  0  0
  127.6466  124.8698  142.8629 N   0  0  0  0  0  0  0  0  0  0  0  0
  128.9064  125.1085  143.5803 C   0  0  0  0  0  0  0  0  0  0  0  0
  130.0424  124.5258  142.7538 C   0  0  0  0  0  0  0  0  0  0  0  0
  129.7053  124.5797  141.2577 C   0  0  0  0  0  0  0  0  0  0  0  0
  130.9680  124.3706  140.4721 C   0  0  0  0  0  0  0  0  0  0  0  0
  131.5776  125.2125  139.6256 N   0  0  0  0  0  0  0  0  0  0  0  0
  132.6619  124.6100  139.1604 C   0  0  0  0  0  0  0  0  0  0  0  0
  133.6542  125.1275  138.2049 C   0  0  0  0  0  0  0  0  0  0  0  0
  134.9892  124.9827  138.4643 C   0  0  0  0  0  0  0  0  0  0  0  0
  135.9217  125.4651  137.5733 C   0  0  0  0  0  0  0  0  0  0  0  0
  135.4842  126.0858  136.4354 C   0  0  0  0  0  0  0  0  0  0  0  0
  134.1227  126.2259  136.1849 C   0  0  0  0  0  0  0  0  0  0  0  0
  133.2721  125.7349  137.0910 N   0  0  0  0  0  0  0  0  0  0  0  0
  132.7011  123.3913  139.7364 N   0  0  0  0  0  0  0  0  0  0  0  0
  131.6756  123.2711  140.5182 O   0  0  0  0  0  0  0  0  0  0  0  0
  1  2  2  0
  2  3  1  0
  3  4  1  0
  5  4  1  6
  5  6  1  0
  7  6  1  6
  7  8  1  0
  8  9  2  0
  9 10  1  0
 10 11  2  0
 11 12  1  0
  2 13  1  0
 13 14  1  0
 14 15  1  0
 15 16  1  0
 16 17  1  0
 17 18  2  0
 18 19  1  0
 19 20  1  0
 20 21  2  0
 21 22  1  0
 22 23  2  0
 23 24  1  0
 24 25  2  0
 19 26  2  0
 26 27  1  0
  7  5  1  0
 12  7  1  0
 27 17  1  0
 25 20  1  0
M  END
>  <docking_score>  (2) 
-6.3970000000000002

$$$$

     RDKit          3D

 27 30  0  0  0  0  0  0  0  0999 V2000
  137.4951  116.8655  136.5019 O   0  0  0  0  0  0  0  0  0  0  0  0
  136.6783  117.8136  136.2453 C   0  0  0  0  0  0  0  0  0  0  0  0
  136.3165  117.9815  134.8965 N   0  0  0  0  0  0  0  0  0  0  0  0
  136.8562  117.1102  133.8686 C   0  0  0  0  0  0  0  0  0  0  0  0
  136.0036  115.8628  133.8448 C   0  0  2  0  0  0  0  0  0  0  0  0
  136.6394  114.5203  133.9789 C   0  0  0  0  0  0  0  0  0  0  0  0
  136.1487  114.9463  132.6374 C   0  0  2  0  0  0  0  0  0  0  0  0
  137.0741  115.4337  131.6197 C   0  0  0  0  0  0  0  0  0  0  0  0
  136.8629  115.2630  130.3489 C   0  0  0  0  0  0  0  0  0  0  0  0
  135.6876  114.5742  129.8799 C   0  0  0  0  0  0  0  0  0  0  0  0
  134.8105  114.1071  130.7164 C   0  0  0  0  0  0  0  0  0  0  0  0
  134.9369  114.2360  132.1532 C   0  0  0  0  0  0  0  0  0  0  0  0
  136.1891  118.6302  137.3089 N   0  0  0  0  0  0  0  0  0  0  0  0
  136.6343  118.3656  138.6839 C   0  0  0  0  0  0  0  0  0  0  0  0
  137.6270  119.4480  139.0791 C   0  0  0  0  0  0  0  0  0  0  0  0
  137.3360  119.9566  140.4973 C   0  0  0  0  0  0  0  0  0  0  0  0
  136.6745  121.3013  140.4000 C   0  0  0  0  0  0  0  0  0  0  0  0
  136.0797  121.8681  139.3408 N   0  0  0  0  0  0  0  0  0  0  0  0
  135.6351  123.0598  139.7112 C   0  0  0  0  0  0  0  0  0  0  0  0
  134.9161  124.0572  138.9026 C   0  0  0  0  0  0  0  0  0  0  0  0
  133.6286  124.3915  139.2207 C   0  0  0  0  0  0  0  0  0  0  0  0
  132.9516  125.3243  138.4671 C   0  0  0  0  0  0  0  0  0  0  0  0
  133.5917  125.9013  137.4047 C   0  0  0  0  0  0  0  0  0  0  0  0
  134.9019  125.5512  137.0931 C   0  0  0  0  0  0  0  0  0  0  0  0
  135.5001  124.6395  137.8655 N   0  0  0  0  0  0  0  0  0  0  0  0
  135.9686  123.2077  141.0094 N   0  0  0  0  0  0  0  0  0  0  0  0
  136.5907  122.1409  141.3999 O   0  0  0  0  0  0  0  0  0  0  0  0
  1  2  2  0
  2  3  1  0
  3  4  1  0
  5  4  1  6
  5  6  1  0
  7  6  1  1
  7  8  1  0
  8  9  2  0
  9 10  1  0
 10 11  2  0
 11 12  1  0
  2 13  1  0
 13 14  1  0
 14 15  1  0
 15 16  1  0
 16 17  1  0
 17 18  2  0
 18 19  1  0
 19 20  1  0
 20 21  2  0
 21 22  1  0
 22 23  2  0
 23 24  1  0
 24 25  2  0
 19 26  2  0
 26 27  1  0
  7  5  1  0
 12  7  1  0
 27 17  1  0
 25 20  1  0
M  END
>  <docking_score>  (3) 
-6.351

$$$$
