
     RDKit          3D

 24 26  0  0  0  0  0  0  0  0999 V2000
  139.6860  115.2242  137.7270 O   0  0  0  0  0  0  0  0  0  0  0  0
  138.8063  115.5059  136.8499 C   0  0  0  0  0  0  0  0  0  0  0  0
  137.8923  116.5779  136.6790 N   0  0  0  0  0  0  0  0  0  0  0  0
  137.5405  117.7097  137.4467 C   0  0  0  0  0  0  0  0  0  0  0  0
  136.5404  118.5321  136.9230 C   0  0  0  0  0  0  0  0  0  0  0  0
  136.1507  119.6543  137.6145 C   0  0  0  0  0  0  0  0  0  0  0  0
  136.7292  119.9818  138.8137 C   0  0  0  0  0  0  0  0  0  0  0  0
  136.3532  121.0835  139.4962 F   0  0  0  0  0  0  0  0  0  0  0  0
  137.7173  119.1737  139.3360 C   0  0  0  0  0  0  0  0  0  0  0  0
  138.4737  119.5770  140.8768 Cl  0  0  0  0  0  0  0  0  0  0  0  0
  138.1013  118.0504  138.6351 C   0  0  0  0  0  0  0  0  0  0  0  0
  137.4342  116.0882  135.3870 C   0  0  1  0  0  0  0  0  0  0  0  0
  137.6542  116.9788  134.2626 C   0  0  0  0  0  0  0  0  0  0  0  0
  138.8002  117.7268  134.1664 C   0  0  0  0  0  0  0  0  0  0  0  0
  139.0265  118.5823  133.0853 C   0  0  0  0  0  0  0  0  0  0  0  0
  138.0830  118.6663  132.1141 C   0  0  0  0  0  0  0  0  0  0  0  0
  136.9415  117.9200  132.2122 C   0  0  0  0  0  0  0  0  0  0  0  0
  136.7547  117.0979  133.2784 N   0  0  0  0  0  0  0  0  0  0  0  0
  138.2856  114.9075  135.6061 C   0  0  1  0  0  0  0  0  0  0  0  0
  139.3495  114.5467  134.6433 C   0  0  0  0  0  0  0  0  0  0  0  0
  138.7816  113.4188  133.7674 C   0  0  0  0  0  0  0  0  0  0  0  0
  139.1191  113.6280  132.3801 N   0  0  0  0  0  0  0  0  0  0  0  0
  137.8841  112.8081  131.4358 Cl  0  0  0  0  0  0  0  0  0  0  0  0
  138.9718  114.9508  132.0949 F   0  0  0  0  0  0  0  0  0  0  0  0
  1  2  2  0
  2  3  1  0
  3  4  1  0
  4  5  2  0
  5  6  1  0
  6  7  2  0
  7  8  1  0
  7  9  1  0
  9 10  1  0
  9 11  2  0
  3 12  1  0
 12 13  1  6
 13 14  2  0
 14 15  1  0
 15 16  2  0
 16 17  1  0
 17 18  2  0
 12 19  1  0
 19 20  1  6
 20 21  1  0
 21 22  1  0
 22 23  1  0
 22 24  1  0
 19  2  1  0
 11  4  1  0
 18 13  1  0
M  END
>  <docking_score>  (1) 
-7.4889999999999999

$$$$

     RDKit          3D

 24 26  0  0  0  0  0  0  0  0999 V2000
  139.9406  115.1470  137.5987 O   0  0  0  0  0  0  0  0  0  0  0  0
  139.0906  115.3325  136.6682 C   0  0  0  0  0  0  0  0  0  0  0  0
  137.9927  116.2151  136.4973 N   0  0  0  0  0  0  0  0  0  0  0  0
  137.3604  117.1773  137.3150 C   0  0  0  0  0  0  0  0  0  0  0  0
  136.0100  117.4241  137.0572 C   0  0  0  0  0  0  0  0  0  0  0  0
  135.3319  118.3520  137.8113 C   0  0  0  0  0  0  0  0  0  0  0  0
  135.9606  119.0422  138.8155 C   0  0  0  0  0  0  0  0  0  0  0  0
  135.3013  119.9563  139.5575 F   0  0  0  0  0  0  0  0  0  0  0  0
  137.2938  118.8029  139.0748 C   0  0  0  0  0  0  0  0  0  0  0  0
  138.1207  119.6796  140.3619 Cl  0  0  0  0  0  0  0  0  0  0  0  0
  137.9654  117.8704  138.3132 C   0  0  0  0  0  0  0  0  0  0  0  0
  137.7429  115.7702  135.1340 C   0  0  1  0  0  0  0  0  0  0  0  0
  137.8607  116.7896  134.1079 C   0  0  0  0  0  0  0  0  0  0  0  0
  136.9307  116.8944  133.1048 C   0  0  0  0  0  0  0  0  0  0  0  0
  137.0294  117.8759  132.1155 C   0  0  0  0  0  0  0  0  0  0  0  0
  138.0745  118.7399  132.1589 C   0  0  0  0  0  0  0  0  0  0  0  0
  139.0004  118.6334  133.1595 C   0  0  0  0  0  0  0  0  0  0  0  0
  138.8726  117.6660  134.1057 N   0  0  0  0  0  0  0  0  0  0  0  0
  138.7983  114.7646  135.3384 C   0  0  1  0  0  0  0  0  0  0  0  0
  139.9831  114.7135  134.4535 C   0  0  0  0  0  0  0  0  0  0  0  0
  140.1519  113.2446  134.0343 C   0  0  0  0  0  0  0  0  0  0  0  0
  138.8934  112.6881  133.5996 N   0  0  0  0  0  0  0  0  0  0  0  0
  139.1240  112.1693  131.9362 Cl  0  0  0  0  0  0  0  0  0  0  0  0
  138.6600  111.5469  134.3039 F   0  0  0  0  0  0  0  0  0  0  0  0
  1  2  2  0
  2  3  1  0
  3  4  1  0
  4  5  2  0
  5  6  1  0
  6  7  2  0
  7  8  1  0
  7  9  1  0
  9 10  1  0
  9 11  2  0
  3 12  1  0
 12 13  1  6
 13 14  2  0
 14 15  1  0
 15 16  2  0
 16 17  1  0
 17 18  2  0
 12 19  1  0
 19 20  1  6
 20 21  1  0
 21 22  1  0
 22 23  1  0
 22 24  1  0
 19  2  1  0
 11  4  1  0
 18 13  1  0
M  END
>  <docking_score>  (2) 
-7.1520000000000001

$$$$

     RDKit          3D

 24 26  0  0  0  0  0  0  0  0999 V2000
  130.4868  141.6217  139.2839 O   0  0  0  0  0  0  0  0  0  0  0  0
  129.6909  141.1229  140.1444 C   0  0  0  0  0  0  0  0  0  0  0  0
  129.3138  139.7986  140.4874 N   0  0  0  0  0  0  0  0  0  0  0  0
  129.6066  138.5199  139.9648 C   0  0  0  0  0  0  0  0  0  0  0  0
  128.5157  137.7450  139.5645 C   0  0  0  0  0  0  0  0  0  0  0  0
  128.7262  136.4875  139.0508 C   0  0  0  0  0  0  0  0  0  0  0  0
  129.9931  135.9787  138.9245 C   0  0  0  0  0  0  0  0  0  0  0  0
  130.2064  134.7440  138.4236 F   0  0  0  0  0  0  0  0  0  0  0  0
  131.0744  136.7390  139.3181 C   0  0  0  0  0  0  0  0  0  0  0  0
  132.7117  136.1034  139.1636 Cl  0  0  0  0  0  0  0  0  0  0  0  0
  130.8532  137.9990  139.8320 C   0  0  0  0  0  0  0  0  0  0  0  0
  128.4966  140.2356  141.6100 C   0  0  1  0  0  0  0  0  0  0  0  0
  128.9029  139.7434  142.9133 C   0  0  0  0  0  0  0  0  0  0  0  0
  127.9864  139.5612  143.9178 C   0  0  0  0  0  0  0  0  0  0  0  0
  128.3643  139.0812  145.1743 C   0  0  0  0  0  0  0  0  0  0  0  0
  129.6715  138.7922  145.3937 C   0  0  0  0  0  0  0  0  0  0  0  0
  130.5831  138.9749  144.3912 C   0  0  0  0  0  0  0  0  0  0  0  0
  130.1798  139.4436  143.1807 N   0  0  0  0  0  0  0  0  0  0  0  0
  128.7787  141.6187  141.1924 C   0  0  1  0  0  0  0  0  0  0  0  0
  129.4213  142.5776  142.1181 C   0  0  0  0  0  0  0  0  0  0  0  0
  128.5715  143.8575  142.0800 C   0  0  0  0  0  0  0  0  0  0  0  0
  129.4099  145.0257  141.9582 N   0  0  0  0  0  0  0  0  0  0  0  0
  130.1907  144.9192  140.3871 Cl  0  0  0  0  0  0  0  0  0  0  0  0
  128.6106  146.1253  141.8896 F   0  0  0  0  0  0  0  0  0  0  0  0
  1  2  2  0
  2  3  1  0
  3  4  1  0
  4  5  2  0
  5  6  1  0
  6  7  2  0
  7  8  1  0
  7  9  1  0
  9 10  1  0
  9 11  2  0
  3 12  1  0
 12 13  1  1
 13 14  2  0
 14 15  1  0
 15 16  2  0
 16 17  1  0
 17 18  2  0
 12 19  1  0
 19 20  1  1
 20 21  1  0
 21 22  1  0
 22 23  1  0
 22 24  1  0
 19  2  1  0
 11  4  1  0
 18 13  1  0
M  END
>  <docking_score>  (3) 
-6.9809999999999999

$$$$
