
     RDKit          3D

 20 22  0  0  0  0  0  0  0  0999 V2000
  141.4945  131.6224  138.7488 O   0  0  0  0  0  0  0  0  0  0  0  0
  141.3199  132.3097  137.7248 C   0  0  0  0  0  0  0  0  0  0  0  0
  139.9313  132.4115  137.3955 N   0  0  0  0  0  0  0  0  0  0  0  0
  139.1763  132.7323  136.2305 C   0  0  0  0  0  0  0  0  0  0  0  0
  137.8488  132.5175  136.5283 C   0  0  0  0  0  0  0  0  0  0  0  0
  136.8672  132.7433  135.5897 C   0  0  0  0  0  0  0  0  0  0  0  0
  135.1721  132.4699  135.9676 Cl  0  0  0  0  0  0  0  0  0  0  0  0
  137.2510  133.1913  134.3412 C   0  0  0  0  0  0  0  0  0  0  0  0
  138.5835  133.4030  134.0536 C   0  0  0  0  0  0  0  0  0  0  0  0
  138.9699  133.8452  132.8230 F   0  0  0  0  0  0  0  0  0  0  0  0
  139.5841  133.1840  134.9768 C   0  0  0  0  0  0  0  0  0  0  0  0
  142.4714  132.8383  137.1046 N   0  0  0  0  0  0  0  0  0  0  0  0
  142.8404  133.4940  135.8801 C   0  0  0  0  0  0  0  0  0  0  0  0
  144.2402  133.9670  135.8582 C   0  0  0  0  0  0  0  0  0  0  0  0
  144.9017  133.2880  134.6776 C   0  0  0  0  0  0  0  0  0  0  0  0
  143.2297  134.6048  133.6267 S   0  0  1  0  0  0  0  0  0  0  0  0
  142.2038  133.7641  134.7761 C   0  0  0  0  0  0  0  0  0  0  0  0
  140.8427  133.5121  134.3194 C   0  0  0  0  0  0  0  0  0  0  0  0
  140.6993  133.5906  133.0760 O   0  0  0  0  0  0  0  0  0  0  0  0
  143.8726  135.6375  133.2331 F   0  0  0  0  0  0  0  0  0  0  0  0
  1  2  2  0
  2  3  1  0
  3  4  1  0
  4  5  2  0
  5  6  1  0
  6  7  1  0
  6  8  2  0
  8  9  1  0
  9 10  1  0
  9 11  2  0
  2 12  1  0
 12 13  1  0
 13 14  1  0
 14 15  1  0
 15 16  1  0
 16 17  1  0
 17 18  1  0
 18 19  2  0
 16 20  1  1
 11  4  1  0
 18 11  1  0
 13 17  2  0
M  END
>  <docking_score>  (1) 
-7.1970000000000001

$$$$

     RDKit          3D

 20 22  0  0  0  0  0  0  0  0999 V2000
  122.0883  127.7941  140.3625 O   0  0  0  0  0  0  0  0  0  0  0  0
  121.5984  126.6956  140.6863 C   0  0  0  0  0  0  0  0  0  0  0  0
  122.2683  126.1401  141.8218 N   0  0  0  0  0  0  0  0  0  0  0  0
  122.4011  124.8444  142.3995 C   0  0  0  0  0  0  0  0  0  0  0  0
  123.3086  124.9444  143.4307 C   0  0  0  0  0  0  0  0  0  0  0  0
  123.6467  123.8438  144.1855 C   0  0  0  0  0  0  0  0  0  0  0  0
  124.8048  123.9691  145.5023 Cl  0  0  0  0  0  0  0  0  0  0  0  0
  123.0502  122.6365  143.8796 C   0  0  0  0  0  0  0  0  0  0  0  0
  122.1426  122.5476  142.8446 C   0  0  0  0  0  0  0  0  0  0  0  0
  121.5497  121.3589  142.5369 F   0  0  0  0  0  0  0  0  0  0  0  0
  121.7883  123.6355  142.0750 C   0  0  0  0  0  0  0  0  0  0  0  0
  120.5210  126.2213  139.9089 N   0  0  0  0  0  0  0  0  0  0  0  0
  119.7588  125.0158  139.7315 C   0  0  0  0  0  0  0  0  0  0  0  0
  118.5981  125.1742  138.8309 C   0  0  0  0  0  0  0  0  0  0  0  0
  118.7946  124.1836  137.7029 C   0  0  0  0  0  0  0  0  0  0  0  0
  118.5948  122.7599  139.5916 S   0  0  1  0  0  0  0  0  0  0  0  0
  119.8699  123.8037  140.1958 C   0  0  0  0  0  0  0  0  0  0  0  0
  120.8200  123.1605  141.0947 C   0  0  0  0  0  0  0  0  0  0  0  0
  120.8210  121.9083  141.0246 O   0  0  0  0  0  0  0  0  0  0  0  0
  117.3750  122.3797  139.5457 F   0  0  0  0  0  0  0  0  0  0  0  0
  1  2  2  0
  2  3  1  0
  3  4  1  0
  4  5  2  0
  5  6  1  0
  6  7  1  0
  6  8  2  0
  8  9  1  0
  9 10  1  0
  9 11  2  0
  2 12  1  0
 12 13  1  0
 13 14  1  0
 14 15  1  0
 15 16  1  0
 16 17  1  0
 17 18  1  0
 18 19  2  0
 16 20  1  1
 11  4  1  0
 18 11  1  0
 13 17  2  0
M  END
>  <docking_score>  (2) 
-7.1920000000000002

$$$$

     RDKit          3D

 20 22  0  0  0  0  0  0  0  0999 V2000
  139.4501  113.2976  136.8269 O   0  0  0  0  0  0  0  0  0  0  0  0
  139.0919  114.3119  136.1990 C   0  0  0  0  0  0  0  0  0  0  0  0
  138.8030  115.3983  137.0839 N   0  0  0  0  0  0  0  0  0  0  0  0
  138.0603  116.6118  137.0070 C   0  0  0  0  0  0  0  0  0  0  0  0
  138.0541  117.1712  138.2655 C   0  0  0  0  0  0  0  0  0  0  0  0
  137.4075  118.3624  138.5077 C   0  0  0  0  0  0  0  0  0  0  0  0
  137.3984  119.0784  140.1133 Cl  0  0  0  0  0  0  0  0  0  0  0  0
  136.7653  118.9805  137.4531 C   0  0  0  0  0  0  0  0  0  0  0  0
  136.7776  118.4113  136.1965 C   0  0  0  0  0  0  0  0  0  0  0  0
  136.1456  119.0160  135.1505 F   0  0  0  0  0  0  0  0  0  0  0  0
  137.4182  117.2197  135.9298 C   0  0  0  0  0  0  0  0  0  0  0  0
  139.0386  114.2087  134.7930 N   0  0  0  0  0  0  0  0  0  0  0  0
  138.5463  114.9553  133.6680 C   0  0  0  0  0  0  0  0  0  0  0  0
  138.9339  114.3848  132.3612 C   0  0  0  0  0  0  0  0  0  0  0  0
  137.6443  114.0910  131.6243 C   0  0  0  0  0  0  0  0  0  0  0  0
  137.5579  116.4507  131.8651 S   0  0  1  0  0  0  0  0  0  0  0  0
  137.8265  116.0346  133.5489 C   0  0  0  0  0  0  0  0  0  0  0  0
  137.2161  116.9409  134.5136 C   0  0  0  0  0  0  0  0  0  0  0  0
  136.3033  117.6555  134.0352 O   0  0  0  0  0  0  0  0  0  0  0  0
  137.9629  116.8774  130.7300 F   0  0  0  0  0  0  0  0  0  0  0  0
  1  2  2  0
  2  3  1  0
  3  4  1  0
  4  5  2  0
  5  6  1  0
  6  7  1  0
  6  8  2  0
  8  9  1  0
  9 10  1  0
  9 11  2  0
  2 12  1  0
 12 13  1  0
 13 14  1  0
 14 15  1  0
 15 16  1  0
 16 17  1  0
 17 18  1  0
 18 19  2  0
 16 20  1  6
 11  4  1  0
 18 11  1  0
 13 17  2  0
M  END
>  <docking_score>  (3) 
-7.0499999999999998

$$$$
