
     RDKit          3D

 21 22  0  0  0  0  0  0  0  0999 V2000
  136.2070  116.1017  130.8873 O   0  0  0  0  0  0  0  0  0  0  0  0
  136.6050  116.0252  132.0798 C   0  0  0  0  0  0  0  0  0  0  0  0
  137.5661  117.0390  132.4173 C   0  0  0  0  0  0  0  0  0  0  0  0
  137.7488  117.7900  131.2734 C   0  0  0  0  0  0  0  0  0  0  0  0
  138.6224  118.8647  131.2489 C   0  0  0  0  0  0  0  0  0  0  0  0
  139.3079  119.1637  132.4062 C   0  0  0  0  0  0  0  0  0  0  0  0
  139.1157  118.4098  133.5310 C   0  0  0  0  0  0  0  0  0  0  0  0
  138.2539  117.3324  133.5930 C   0  0  0  0  0  0  0  0  0  0  0  0
  135.9708  114.9133  132.7971 C   0  0  0  0  0  0  0  0  0  0  0  0
  136.2912  114.3283  133.9405 C   0  0  0  0  0  0  0  0  0  0  0  0
  137.3181  114.4585  134.9722 C   0  0  0  0  0  0  0  0  0  0  0  0
  138.0638  115.5113  135.2618 C   0  0  0  0  0  0  0  0  0  0  0  0
  138.3941  116.8700  134.9621 C   0  0  2  0  0  0  0  0  0  0  0  0
  138.0123  117.8946  135.9717 C   0  0  0  0  0  0  0  0  0  0  0  0
  136.8333  117.4163  136.7933 C   0  0  2  0  0  0  0  0  0  0  0  0
  135.8160  118.3921  136.6756 O   0  0  0  0  0  0  0  0  0  0  0  0
  137.2728  117.4543  138.2479 C   0  0  0  0  0  0  0  0  0  0  0  0
  136.4117  118.3994  138.9073 N   0  0  0  0  0  0  0  0  0  0  0  0
  136.8249  119.1641  139.8506 C   0  0  0  0  0  0  0  0  0  0  0  0
  135.8149  120.0979  140.4434 C   0  0  0  0  0  0  0  0  0  0  0  0
  135.7996  121.3270  139.5404 C   0  0  0  0  0  0  0  0  0  0  0  0
  1  2  2  0
  2  3  1  0
  3  4  2  0
  4  5  1  0
  5  6  2  0
  6  7  1  0
  7  8  2  0
  2  9  1  0
  9 10  2  3
 10 11  1  0
 11 12  2  3
 12 13  1  0
 13 14  1  1
 14 15  1  0
 15 16  1  1
 15 17  1  0
 17 18  1  0
 18 19  2  3
 19 20  1  0
 20 21  1  0
  8  3  1  0
 13  8  1  0
M  END
>  <docking_score>  (1) 
-6.9660000000000002

$$$$

     RDKit          3D

 21 22  0  0  0  0  0  0  0  0999 V2000
  137.9960  133.4934  133.3621 O   0  0  0  0  0  0  0  0  0  0  0  0
  138.2379  133.2218  134.5680 C   0  0  0  0  0  0  0  0  0  0  0  0
  139.6212  133.3960  134.9165 C   0  0  0  0  0  0  0  0  0  0  0  0
  140.2568  133.8150  133.7648 C   0  0  0  0  0  0  0  0  0  0  0  0
  141.6165  134.0792  133.7476 C   0  0  0  0  0  0  0  0  0  0  0  0
  142.3200  133.9103  134.9203 C   0  0  0  0  0  0  0  0  0  0  0  0
  141.6756  133.4946  136.0525 C   0  0  0  0  0  0  0  0  0  0  0  0
  140.3228  133.2219  136.1077 C   0  0  0  0  0  0  0  0  0  0  0  0
  137.0296  132.8001  135.2859 C   0  0  0  0  0  0  0  0  0  0  0  0
  136.8865  132.1862  136.4500 C   0  0  0  0  0  0  0  0  0  0  0  0
  137.7455  131.6649  137.5112 C   0  0  0  0  0  0  0  0  0  0  0  0
  138.9891  132.0052  137.8042 C   0  0  0  0  0  0  0  0  0  0  0  0
  140.1172  132.8256  137.4892 C   0  0  2  0  0  0  0  0  0  0  0  0
  140.4688  133.8918  138.4662 C   0  0  0  0  0  0  0  0  0  0  0  0
  140.2652  133.4001  139.8842 C   0  0  2  0  0  0  0  0  0  0  0  0
  139.5182  134.3877  140.5679 O   0  0  0  0  0  0  0  0  0  0  0  0
  141.6352  133.3920  140.5427 C   0  0  0  0  0  0  0  0  0  0  0  0
  141.8127  134.6949  141.1260 N   0  0  0  0  0  0  0  0  0  0  0  0
  142.8839  135.3813  140.9622 C   0  0  0  0  0  0  0  0  0  0  0  0
  142.9262  136.7215  141.6297 C   0  0  0  0  0  0  0  0  0  0  0  0
  142.0122  137.6269  140.8105 C   0  0  0  0  0  0  0  0  0  0  0  0
  1  2  2  0
  2  3  1  0
  3  4  2  0
  4  5  1  0
  5  6  2  0
  6  7  1  0
  7  8  2  0
  2  9  1  0
  9 10  2  3
 10 11  1  0
 11 12  2  3
 12 13  1  0
 13 14  1  1
 14 15  1  0
 15 16  1  1
 15 17  1  0
 17 18  1  0
 18 19  2  3
 19 20  1  0
 20 21  1  0
  8  3  1  0
 13  8  1  0
M  END
>  <docking_score>  (2) 
-6.7050000000000001

$$$$

     RDKit          3D

 21 22  0  0  0  0  0  0  0  0999 V2000
  120.2127  123.7991  140.5454 O   0  0  0  0  0  0  0  0  0  0  0  0
  121.0817  124.3644  141.2607 C   0  0  0  0  0  0  0  0  0  0  0  0
  121.6360  123.4960  142.2626 C   0  0  0  0  0  0  0  0  0  0  0  0
  121.0023  122.2793  142.1085 C   0  0  0  0  0  0  0  0  0  0  0  0
  121.3035  121.2014  142.9248 C   0  0  0  0  0  0  0  0  0  0  0  0
  122.2596  121.3804  143.9008 C   0  0  0  0  0  0  0  0  0  0  0  0
  122.8782  122.5921  144.0404 C   0  0  0  0  0  0  0  0  0  0  0  0
  122.6042  123.6881  143.2460 C   0  0  0  0  0  0  0  0  0  0  0  0
  121.2868  125.7632  140.8677 C   0  0  0  0  0  0  0  0  0  0  0  0
  121.8832  126.7601  141.5023 C   0  0  0  0  0  0  0  0  0  0  0  0
  122.5706  126.9764  142.7738 C   0  0  0  0  0  0  0  0  0  0  0  0
  123.1547  126.0837  143.5549 C   0  0  0  0  0  0  0  0  0  0  0  0
  123.4925  124.7107  143.7686 C   0  0  2  0  0  0  0  0  0  0  0  0
  124.9323  124.3475  143.6677 C   0  0  0  0  0  0  0  0  0  0  0  0
  125.7969  125.5906  143.7047 C   0  0  2  0  0  0  0  0  0  0  0  0
  126.2411  125.8324  142.3837 O   0  0  0  0  0  0  0  0  0  0  0  0
  127.0426  125.2305  144.4978 C   0  0  0  0  0  0  0  0  0  0  0  0
  128.1587  125.7672  143.7659 N   0  0  0  0  0  0  0  0  0  0  0  0
  129.3547  125.3290  143.9173 C   0  0  0  0  0  0  0  0  0  0  0  0
  130.4155  125.9844  143.0874 C   0  0  0  0  0  0  0  0  0  0  0  0
  131.7468  125.5714  143.7065 C   0  0  0  0  0  0  0  0  0  0  0  0
  1  2  2  0
  2  3  1  0
  3  4  2  0
  4  5  1  0
  5  6  2  0
  6  7  1  0
  7  8  2  0
  2  9  1  0
  9 10  2  3
 10 11  1  0
 11 12  2  3
 12 13  1  0
 13 14  1  6
 14 15  1  0
 15 16  1  6
 15 17  1  0
 17 18  1  0
 18 19  2  3
 19 20  1  0
 20 21  1  0
  8  3  1  0
 13  8  1  0
M  END
>  <docking_score>  (3) 
-6.5609999999999999

$$$$
