
     RDKit          3D

 29 33  0  0  0  0  0  0  0  0999 V2000
  141.1301  135.6196  137.4509 O   0  0  0  0  0  0  0  0  0  0  0  0
  142.4346  135.4041  137.6255 C   0  0  0  0  0  0  0  0  0  0  0  0
  142.9344  134.2271  137.0807 N   0  0  0  0  0  0  0  0  0  0  0  0
  141.9650  133.3244  136.4392 C   0  0  2  0  0  0  0  0  0  0  0  0
  142.3410  131.9622  136.1459 C   0  0  0  0  0  0  0  0  0  0  0  0
  142.3835  132.9617  134.9946 C   0  0  2  0  0  0  0  0  0  0  0  0
  143.7973  133.2512  134.5593 C   0  0  0  0  0  0  0  0  0  0  0  0
  144.0592  134.4531  134.0435 C   0  0  0  0  0  0  0  0  0  0  0  0
  145.3563  134.9069  133.5852 C   0  0  0  0  0  0  0  0  0  0  0  0
  146.3639  133.9045  133.7484 C   0  0  0  0  0  0  0  0  0  0  0  0
  146.0474  132.6975  134.2778 C   0  0  0  0  0  0  0  0  0  0  0  0
  144.8144  132.3451  134.6883 C   0  0  0  0  0  0  0  0  0  0  0  0
  143.2142  136.3327  138.3240 N   0  0  0  0  0  0  0  0  0  0  0  0
  143.4407  136.0896  139.7903 C   0  0  0  0  0  0  0  0  0  0  0  0
  144.3451  137.0470  140.4406 C   0  0  0  0  0  0  0  0  0  0  0  0
  145.4955  137.4201  139.5292 C   0  0  1  0  0  0  0  0  0  0  0  0
  146.7153  137.7393  140.2218 C   0  0  0  0  0  0  0  0  0  0  0  0
  146.7739  138.8649  140.9772 N   0  0  0  0  0  0  0  0  0  0  0  0
  147.9186  139.1944  141.6340 C   0  0  0  0  0  0  0  0  0  0  0  0
  148.3559  138.3774  142.8662 C   0  0  0  0  0  0  0  0  0  0  0  0
  148.9617  137.7397  143.9367 C   0  0  0  0  0  0  0  0  0  0  0  0
  150.2930  138.0475  144.1799 C   0  0  0  0  0  0  0  0  0  0  0  0
  150.9568  139.0121  143.3639 C   0  0  0  0  0  0  0  0  0  0  0  0
  150.1551  139.5759  142.3265 C   0  0  0  0  0  0  0  0  0  0  0  0
  149.2753  138.9960  142.5832 C   0  0  0  0  0  0  0  0  0  0  0  0
  149.0407  139.9828  141.3103 N   0  0  0  0  0  0  0  0  0  0  0  0
  145.7420  136.4602  138.4440 C   0  0  0  0  0  0  0  0  0  0  0  0
  145.1181  137.0652  137.1740 C   0  0  0  0  0  0  0  0  0  0  0  0
  143.6802  137.4579  137.5589 C   0  0  0  0  0  0  0  0  0  0  0  0
  1  2  2  0
  2  3  1  0
  4  3  1  1
  4  5  1  0
  5  6  1  0
  6  7  1  1
  7  8  2  0
  8  9  1  0
  9 10  2  0
 10 11  1  0
 11 12  2  0
  2 13  1  0
 13 14  1  0
 14 15  1  0
 16 15  1  1
 16 17  1  0
 17 18  2  3
 18 19  1  0
 19 20  1  0
 20 21  2  0
 21 22  1  0
 22 23  2  0
 23 24  1  0
 24 25  2  0
 19 26  2  0
 16 27  1  0
 27 28  1  0
 28 29  1  0
  6  4  1  0
 12  7  1  0
 29 13  1  0
 25 20  1  0
 26 24  1  0
M  END
>  <docking_score>  (1) 
-8.077

$$$$

     RDKit          3D

 29 33  0  0  0  0  0  0  0  0999 V2000
  134.5313  126.0002  139.6474 O   0  0  0  0  0  0  0  0  0  0  0  0
  133.4133  126.3695  139.0207 C   0  0  0  0  0  0  0  0  0  0  0  0
  133.5716  127.2765  137.9794 N   0  0  0  0  0  0  0  0  0  0  0  0
  134.9333  127.7775  137.7322 C   0  0  2  0  0  0  0  0  0  0  0  0
  135.2230  129.1803  137.9099 C   0  0  0  0  0  0  0  0  0  0  0  0
  134.9942  128.6896  136.4841 C   0  0  2  0  0  0  0  0  0  0  0  0
  133.7029  129.2175  135.9131 C   0  0  0  0  0  0  0  0  0  0  0  0
  133.3739  130.4831  136.1763 C   0  0  0  0  0  0  0  0  0  0  0  0
  132.1823  131.1578  135.7034 C   0  0  0  0  0  0  0  0  0  0  0  0
  131.3666  130.3036  134.8963 C   0  0  0  0  0  0  0  0  0  0  0  0
  131.7444  129.0238  134.6579 C   0  0  0  0  0  0  0  0  0  0  0  0
  132.8739  128.4624  135.1290 C   0  0  0  0  0  0  0  0  0  0  0  0
  132.1771  125.8518  139.4227 N   0  0  0  0  0  0  0  0  0  0  0  0
  132.1841  124.6116  140.2725 C   0  0  0  0  0  0  0  0  0  0  0  0
  130.8607  124.1775  140.7390 C   0  0  0  0  0  0  0  0  0  0  0  0
  129.9921  125.3631  141.1038 C   0  0  1  0  0  0  0  0  0  0  0  0
  129.0441  125.0975  142.1527 C   0  0  0  0  0  0  0  0  0  0  0  0
  127.7741  125.5594  142.0315 N   0  0  0  0  0  0  0  0  0  0  0  0
  126.8614  125.3303  143.0137 C   0  0  0  0  0  0  0  0  0  0  0  0
  125.3755  125.6613  142.7697 C   0  0  0  0  0  0  0  0  0  0  0  0
  123.9992  125.8163  142.7350 C   0  0  0  0  0  0  0  0  0  0  0  0
  123.2689  125.1712  143.7232 C   0  0  0  0  0  0  0  0  0  0  0  0
  123.9488  124.4254  144.7325 C   0  0  0  0  0  0  0  0  0  0  0  0
  125.3706  124.4049  144.6099 C   0  0  0  0  0  0  0  0  0  0  0  0
  125.3810  125.0160  143.7139 C   0  0  0  0  0  0  0  0  0  0  0  0
  126.8686  124.5667  144.1979 N   0  0  0  0  0  0  0  0  0  0  0  0
  130.7396  126.6000  141.3706 C   0  0  0  0  0  0  0  0  0  0  0  0
  130.6219  127.4649  140.1033 C   0  0  0  0  0  0  0  0  0  0  0  0
  131.0187  126.5488  138.9315 C   0  0  0  0  0  0  0  0  0  0  0  0
  1  2  2  0
  2  3  1  0
  4  3  1  1
  4  5  1  0
  5  6  1  0
  6  7  1  1
  7  8  2  0
  8  9  1  0
  9 10  2  0
 10 11  1  0
 11 12  2  0
  2 13  1  0
 13 14  1  0
 14 15  1  0
 16 15  1  1
 16 17  1  0
 17 18  2  3
 18 19  1  0
 19 20  1  0
 20 21  2  0
 21 22  1  0
 22 23  2  0
 23 24  1  0
 24 25  2  0
 19 26  2  0
 16 27  1  0
 27 28  1  0
 28 29  1  0
  6  4  1  0
 12  7  1  0
 29 13  1  0
 25 20  1  0
 26 24  1  0
M  END
>  <docking_score>  (2) 
-7.9630000000000001

$$$$

     RDKit          3D

 29 33  0  0  0  0  0  0  0  0999 V2000
  139.3649  116.0058  137.6458 O   0  0  0  0  0  0  0  0  0  0  0  0
  138.1824  116.3795  137.1550 C   0  0  0  0  0  0  0  0  0  0  0  0
  137.8940  115.9439  135.8670 N   0  0  0  0  0  0  0  0  0  0  0  0
  138.9442  115.1854  135.1683 C   0  0  2  0  0  0  0  0  0  0  0  0
  139.9978  115.8908  134.4787 C   0  0  0  0  0  0  0  0  0  0  0  0
  138.8496  115.3500  133.6329 C   0  0  2  0  0  0  0  0  0  0  0  0
  137.9944  116.4605  133.0781 C   0  0  0  0  0  0  0  0  0  0  0  0
  138.5001  117.6949  133.0703 C   0  0  0  0  0  0  0  0  0  0  0  0
  137.8281  118.8755  132.5672 C   0  0  0  0  0  0  0  0  0  0  0  0
  136.5246  118.5758  132.0598 C   0  0  0  0  0  0  0  0  0  0  0  0
  136.0552  117.3045  132.0905 C   0  0  0  0  0  0  0  0  0  0  0  0
  136.7410  116.2504  132.5714 C   0  0  0  0  0  0  0  0  0  0  0  0
  137.3172  117.1651  137.9245 N   0  0  0  0  0  0  0  0  0  0  0  0
  137.9108  117.9402  139.0679 C   0  0  0  0  0  0  0  0  0  0  0  0
  136.9670  118.8173  139.7729 C   0  0  0  0  0  0  0  0  0  0  0  0
  136.0038  119.4749  138.8070 C   0  0  1  0  0  0  0  0  0  0  0  0
  135.5529  120.7769  139.2204 C   0  0  0  0  0  0  0  0  0  0  0  0
  136.4673  121.7505  139.4592 N   0  0  0  0  0  0  0  0  0  0  0  0
  136.0674  122.9871  139.8607 C   0  0  0  0  0  0  0  0  0  0  0  0
  134.5640  123.3236  139.9192 C   0  0  0  0  0  0  0  0  0  0  0  0
  133.2792  123.8053  140.1112 C   0  0  0  0  0  0  0  0  0  0  0  0
  133.1479  124.9600  140.8699 C   0  0  0  0  0  0  0  0  0  0  0  0
  134.3130  125.6103  141.3764 C   0  0  0  0  0  0  0  0  0  0  0  0
  135.5473  124.9723  141.0504 C   0  0  0  0  0  0  0  0  0  0  0  0
  135.0759  124.1666  140.4983 C   0  0  0  0  0  0  0  0  0  0  0  0
  136.6985  124.0465  140.5426 N   0  0  0  0  0  0  0  0  0  0  0  0
  136.4676  119.4967  137.4125 C   0  0  0  0  0  0  0  0  0  0  0  0
  135.7276  118.3591  136.6871 C   0  0  0  0  0  0  0  0  0  0  0  0
  135.9276  117.1056  137.5582 C   0  0  0  0  0  0  0  0  0  0  0  0
  1  2  2  0
  2  3  1  0
  4  3  1  1
  4  5  1  0
  5  6  1  0
  6  7  1  1
  7  8  2  0
  8  9  1  0
  9 10  2  0
 10 11  1  0
 11 12  2  0
  2 13  1  0
 13 14  1  0
 14 15  1  0
 16 15  1  1
 16 17  1  0
 17 18  2  3
 18 19  1  0
 19 20  1  0
 20 21  2  0
 21 22  1  0
 22 23  2  0
 23 24  1  0
 24 25  2  0
 19 26  2  0
 16 27  1  0
 27 28  1  0
 28 29  1  0
  6  4  1  0
 12  7  1  0
 29 13  1  0
 25 20  1  0
 26 24  1  0
M  END
>  <docking_score>  (3) 
-7.8239999999999998

$$$$
