
     RDKit          3D

 29 33  0  0  0  0  0  0  0  0999 V2000
  135.6735  118.0558  139.1598 O   0  0  0  0  0  0  0  0  0  0  0  0
  135.7524  119.1294  138.5199 C   0  0  0  0  0  0  0  0  0  0  0  0
  136.1521  119.1360  137.1418 N   0  0  0  0  0  0  0  0  0  0  0  0
  136.4568  117.8738  136.5300 C   0  0  1  0  0  0  0  0  0  0  0  0
  136.9303  117.9471  135.1154 C   0  0  0  0  0  0  0  0  0  0  0  0
  137.9772  117.6946  136.2171 C   0  0  2  0  0  0  0  0  0  0  0  0
  138.3784  116.2666  136.3471 C   0  0  0  0  0  0  0  0  0  0  0  0
  138.8511  115.8131  137.5599 C   0  0  0  0  0  0  0  0  0  0  0  0
  139.2214  114.4824  137.6812 C   0  0  0  0  0  0  0  0  0  0  0  0
  139.1315  113.5890  136.6189 C   0  0  0  0  0  0  0  0  0  0  0  0
  138.6608  114.0525  135.4206 C   0  0  0  0  0  0  0  0  0  0  0  0
  138.2892  115.3856  135.2968 C   0  0  0  0  0  0  0  0  0  0  0  0
  135.4469  120.3304  139.1601 N   0  0  0  0  0  0  0  0  0  0  0  0
  135.0292  120.4434  140.5670 C   0  0  2  0  0  0  0  0  0  0  0  0
  133.8939  121.4995  140.4983 C   0  0  0  0  0  0  0  0  0  0  0  0
  134.6626  122.5305  139.6511 C   0  0  1  0  0  0  0  0  0  0  0  0
  134.0128  123.8554  139.6787 C   0  0  0  0  0  0  0  0  0  0  0  0
  132.7132  124.1449  139.9301 N   0  0  0  0  0  0  0  0  0  0  0  0
  132.5266  125.4827  139.8600 C   0  0  0  0  0  0  0  0  0  0  0  0
  131.2677  126.1845  140.0730 C   0  0  0  0  0  0  0  0  0  0  0  0
  130.6192  126.7505  138.9983 C   0  0  0  0  0  0  0  0  0  0  0  0
  129.4239  127.4328  139.1551 C   0  0  0  0  0  0  0  0  0  0  0  0
  128.8799  127.5446  140.4037 C   0  0  0  0  0  0  0  0  0  0  0  0
  129.5325  126.9773  141.4728 C   0  0  0  0  0  0  0  0  0  0  0  0
  130.6927  126.3232  141.2734 N   0  0  0  0  0  0  0  0  0  0  0  0
  133.7331  125.9949  139.5621 N   0  0  0  0  0  0  0  0  0  0  0  0
  134.6006  125.0231  139.4582 O   0  0  0  0  0  0  0  0  0  0  0  0
  136.0126  122.5928  140.3235 C   0  0  0  0  0  0  0  0  0  0  0  0
  136.1105  121.3410  141.1950 C   0  0  0  0  0  0  0  0  0  0  0  0
  1  2  2  0
  2  3  1  0
  4  3  1  1
  4  5  1  0
  5  6  1  0
  6  7  1  6
  7  8  2  0
  8  9  1  0
  9 10  2  0
 10 11  1  0
 11 12  2  0
  2 13  1  0
 14 13  1  6
 14 15  1  0
 15 16  1  0
 16 17  1  1
 17 18  2  0
 18 19  1  0
 19 20  1  0
 20 21  2  0
 21 22  1  0
 22 23  2  0
 23 24  1  0
 24 25  2  0
 19 26  2  0
 26 27  1  0
 16 28  1  0
 28 29  1  0
  6  4  1  0
 12  7  1  0
 29 14  1  0
 27 17  1  0
 25 20  1  0
M  END
>  <docking_score>  (1) 
-8.6340000000000003

$$$$

     RDKit          3D

 29 33  0  0  0  0  0  0  0  0999 V2000
  127.5867  124.9395  143.7463 O   0  0  0  0  0  0  0  0  0  0  0  0
  126.9385  125.8145  143.1276 C   0  0  0  0  0  0  0  0  0  0  0  0
  125.5204  125.6891  142.9484 N   0  0  0  0  0  0  0  0  0  0  0  0
  124.8785  124.5300  143.5005 C   0  0  1  0  0  0  0  0  0  0  0  0
  124.5125  124.6295  144.9451 C   0  0  0  0  0  0  0  0  0  0  0  0
  123.3899  124.7854  143.9015 C   0  0  2  0  0  0  0  0  0  0  0  0
  122.5731  123.5552  143.7111 C   0  0  0  0  0  0  0  0  0  0  0  0
  123.0703  122.3480  144.1533 C   0  0  0  0  0  0  0  0  0  0  0  0
  122.3077  121.2032  143.9788 C   0  0  0  0  0  0  0  0  0  0  0  0
  121.0564  121.2324  143.3719 C   0  0  0  0  0  0  0  0  0  0  0  0
  120.5750  122.4374  142.9376 C   0  0  0  0  0  0  0  0  0  0  0  0
  121.3375  123.5858  143.1114 C   0  0  0  0  0  0  0  0  0  0  0  0
  127.6088  126.9222  142.6087 N   0  0  0  0  0  0  0  0  0  0  0  0
  129.0574  127.1533  142.7300 C   0  0  2  0  0  0  0  0  0  0  0  0
  129.1571  128.7015  142.6872 C   0  0  0  0  0  0  0  0  0  0  0  0
  128.2648  128.9018  141.4480 C   0  0  1  0  0  0  0  0  0  0  0  0
  128.4141  130.2554  140.8791 C   0  0  0  0  0  0  0  0  0  0  0  0
  129.4250  130.7351  140.1147 N   0  0  0  0  0  0  0  0  0  0  0  0
  129.1785  132.0268  139.7984 C   0  0  0  0  0  0  0  0  0  0  0  0
  130.0291  132.8876  138.9872 C   0  0  0  0  0  0  0  0  0  0  0  0
  129.6364  133.2149  137.7088 C   0  0  0  0  0  0  0  0  0  0  0  0
  130.4168  134.0245  136.8998 C   0  0  0  0  0  0  0  0  0  0  0  0
  131.6004  134.5065  137.3837 C   0  0  0  0  0  0  0  0  0  0  0  0
  131.9870  134.1759  138.6612 C   0  0  0  0  0  0  0  0  0  0  0  0
  131.1964  133.3855  139.4121 N   0  0  0  0  0  0  0  0  0  0  0  0
  128.0042  132.3185  140.3839 N   0  0  0  0  0  0  0  0  0  0  0  0
  127.5647  131.2637  141.0181 O   0  0  0  0  0  0  0  0  0  0  0  0
  128.7800  127.8646  140.4799 C   0  0  0  0  0  0  0  0  0  0  0  0
  129.5891  126.8713  141.3133 C   0  0  0  0  0  0  0  0  0  0  0  0
  1  2  2  0
  2  3  1  0
  4  3  1  6
  4  5  1  0
  5  6  1  0
  6  7  1  1
  7  8  2  0
  8  9  1  0
  9 10  2  0
 10 11  1  0
 11 12  2  0
  2 13  1  0
 14 13  1  6
 14 15  1  0
 15 16  1  0
 16 17  1  6
 17 18  2  0
 18 19  1  0
 19 20  1  0
 20 21  2  0
 21 22  1  0
 22 23  2  0
 23 24  1  0
 24 25  2  0
 19 26  2  0
 26 27  1  0
 16 28  1  0
 28 29  1  0
  6  4  1  0
 12  7  1  0
 29 14  1  0
 27 17  1  0
 25 20  1  0
M  END
>  <docking_score>  (2) 
-7.9829999999999997

$$$$

     RDKit          3D

 29 33  0  0  0  0  0  0  0  0999 V2000
  136.0879  120.5290  140.8485 O   0  0  0  0  0  0  0  0  0  0  0  0
  136.2672  120.8146  139.6423 C   0  0  0  0  0  0  0  0  0  0  0  0
  136.0446  122.1482  139.1619 N   0  0  0  0  0  0  0  0  0  0  0  0
  135.6105  123.1347  140.1100 C   0  0  1  0  0  0  0  0  0  0  0  0
  136.6159  124.1882  140.4415 C   0  0  0  0  0  0  0  0  0  0  0  0
  135.4643  124.5608  139.4884 C   0  0  2  0  0  0  0  0  0  0  0  0
  134.3608  125.3132  140.1465 C   0  0  0  0  0  0  0  0  0  0  0  0
  133.1919  124.6511  140.4551 C   0  0  0  0  0  0  0  0  0  0  0  0
  132.1659  125.3516  141.0711 C   0  0  0  0  0  0  0  0  0  0  0  0
  132.2771  126.7013  141.3883 C   0  0  0  0  0  0  0  0  0  0  0  0
  133.4429  127.3463  141.0763 C   0  0  0  0  0  0  0  0  0  0  0  0
  134.4722  126.6463  140.4590 C   0  0  0  0  0  0  0  0  0  0  0  0
  136.6884  119.8199  138.7600 N   0  0  0  0  0  0  0  0  0  0  0  0
  136.9451  118.4213  139.1401 C   0  0  2  0  0  0  0  0  0  0  0  0
  137.8631  117.9225  137.9923 C   0  0  0  0  0  0  0  0  0  0  0  0
  136.9963  118.4466  136.8323 C   0  0  1  0  0  0  0  0  0  0  0  0
  137.3802  117.8380  135.5437 C   0  0  0  0  0  0  0  0  0  0  0  0
  136.5922  117.1726  134.6648 N   0  0  0  0  0  0  0  0  0  0  0  0
  137.3329  116.7752  133.6051 C   0  0  0  0  0  0  0  0  0  0  0  0
  136.8456  116.0356  132.4483 C   0  0  0  0  0  0  0  0  0  0  0  0
  135.6489  115.3600  132.5332 C   0  0  0  0  0  0  0  0  0  0  0  0
  135.1507  114.6384  131.4608 C   0  0  0  0  0  0  0  0  0  0  0  0
  135.8642  114.5983  130.2961 C   0  0  0  0  0  0  0  0  0  0  0  0
  137.0587  115.2750  130.2178 C   0  0  0  0  0  0  0  0  0  0  0  0
  137.5046  115.9637  131.2858 N   0  0  0  0  0  0  0  0  0  0  0  0
  138.5790  117.2106  133.8589 N   0  0  0  0  0  0  0  0  0  0  0  0
  138.5921  117.8362  135.0062 O   0  0  0  0  0  0  0  0  0  0  0  0
  135.6022  118.0184  137.2216 C   0  0  0  0  0  0  0  0  0  0  0  0
  135.6608  117.6881  138.7127 C   0  0  0  0  0  0  0  0  0  0  0  0
  1  2  2  0
  2  3  1  0
  4  3  1  6
  4  5  1  0
  5  6  1  0
  6  7  1  1
  7  8  2  0
  8  9  1  0
  9 10  2  0
 10 11  1  0
 11 12  2  0
  2 13  1  0
 14 13  1  6
 14 15  1  0
 15 16  1  0
 16 17  1  6
 17 18  2  0
 18 19  1  0
 19 20  1  0
 20 21  2  0
 21 22  1  0
 22 23  2  0
 23 24  1  0
 24 25  2  0
 19 26  2  0
 26 27  1  0
 16 28  1  0
 28 29  1  0
  6  4  1  0
 12  7  1  0
 29 14  1  0
 27 17  1  0
 25 20  1  0
M  END
>  <docking_score>  (3) 
-7.8399999999999999

$$$$
