
     RDKit          3D

 11 11  0  0  0  0  0  0  0  0999 V2000
  127.0865  124.4455  143.4368 O   0  0  0  0  0  0  0  0  0  0  0  0
  125.9550  124.2693  143.9087 C   0  0  0  0  0  0  0  0  0  0  0  0
  124.8928  125.2222  143.7088 N   0  0  0  0  0  0  0  0  0  0  0  0
  124.9810  125.9303  142.4609 C   0  0  0  0  0  0  0  0  0  0  0  0
  123.9582  126.4694  141.7749 C   0  0  0  0  0  0  0  0  0  0  0  0
  122.5411  126.4677  142.1212 C   0  0  0  0  0  0  0  0  0  0  0  0
  121.8105  127.2155  141.3090 C   0  0  0  0  0  0  0  0  0  0  0  0
  122.3430  127.8998  140.2742 F   0  0  0  0  0  0  0  0  0  0  0  0
  123.8988  125.3742  144.7103 C   0  0  0  0  0  0  0  0  0  0  0  0
  122.5126  125.3400  144.2507 C   0  0  0  0  0  0  0  0  0  0  0  0
  121.9102  125.7861  143.1761 N   0  0  0  0  0  0  0  0  0  0  0  0
  1  2  2  0
  2  3  1  0
  3  4  1  0
  4  5  2  0
  5  6  1  0
  6  7  2  3
  7  8  1  0
  3  9  1  0
  9 10  1  0
 10 11  2  0
 11  6  1  0
M  END
>  <docking_score>  (1) 
-4.4820000000000002

$$$$

     RDKit          3D

 11 11  0  0  0  0  0  0  0  0999 V2000
  138.0142  116.5847  136.7648 O   0  0  0  0  0  0  0  0  0  0  0  0
  137.6927  116.8411  137.9331 C   0  0  0  0  0  0  0  0  0  0  0  0
  137.1671  118.1286  138.3102 N   0  0  0  0  0  0  0  0  0  0  0  0
  135.7375  118.1463  138.4595 C   0  0  0  0  0  0  0  0  0  0  0  0
  135.0269  118.9760  139.2431 C   0  0  0  0  0  0  0  0  0  0  0  0
  135.5216  120.0371  140.1135 C   0  0  0  0  0  0  0  0  0  0  0  0
  134.5510  120.7699  140.6366 C   0  0  0  0  0  0  0  0  0  0  0  0
  133.2461  120.5410  140.3773 F   0  0  0  0  0  0  0  0  0  0  0  0
  138.0599  119.2165  138.4931 C   0  0  0  0  0  0  0  0  0  0  0  0
  137.8999  119.9788  139.7289 C   0  0  0  0  0  0  0  0  0  0  0  0
  136.8561  120.3403  140.4336 N   0  0  0  0  0  0  0  0  0  0  0  0
  1  2  2  0
  2  3  1  0
  3  4  1  0
  4  5  2  0
  5  6  1  0
  6  7  2  3
  7  8  1  0
  3  9  1  0
  9 10  1  0
 10 11  2  0
 11  6  1  0
M  END
>  <docking_score>  (2) 
-4.4409999999999998

$$$$

     RDKit          3D

 11 11  0  0  0  0  0  0  0  0999 V2000
  140.8138  121.0514  162.7324 O   0  0  0  0  0  0  0  0  0  0  0  0
  142.0298  120.9788  162.9564 C   0  0  0  0  0  0  0  0  0  0  0  0
  142.6377  119.7735  163.4602 N   0  0  0  0  0  0  0  0  0  0  0  0
  143.9796  119.9618  163.9398 C   0  0  0  0  0  0  0  0  0  0  0  0
  144.6030  119.2266  164.8770 C   0  0  0  0  0  0  0  0  0  0  0  0
  144.0819  118.0841  165.6194 C   0  0  0  0  0  0  0  0  0  0  0  0
  145.0015  117.4890  166.3630 C   0  0  0  0  0  0  0  0  0  0  0  0
  146.2823  117.9127  166.4135 F   0  0  0  0  0  0  0  0  0  0  0  0
  141.8979  118.5625  163.4415 C   0  0  0  0  0  0  0  0  0  0  0  0
  141.8768  117.8026  164.6889 C   0  0  0  0  0  0  0  0  0  0  0  0
  142.7695  117.5811  165.6221 N   0  0  0  0  0  0  0  0  0  0  0  0
  1  2  2  0
  2  3  1  0
  3  4  1  0
  4  5  2  0
  5  6  1  0
  6  7  2  3
  7  8  1  0
  3  9  1  0
  9 10  1  0
 10 11  2  0
 11  6  1  0
M  END
>  <docking_score>  (3) 
-1.5049999999999999

$$$$
