
     RDKit          3D

 30 34  0  0  0  0  0  0  0  0999 V2000
  139.4471  131.6024  140.1007 O   0  0  0  0  0  0  0  0  0  0  0  0
  138.6235  132.5267  140.0624 C   0  0  0  0  0  0  0  0  0  0  0  0
  139.1100  133.8350  140.4332 N   0  0  0  0  0  0  0  0  0  0  0  0
  140.5058  134.0087  140.8404 C   0  0  2  0  0  0  0  0  0  0  0  0
  140.6792  134.2691  142.3755 C   0  0  0  0  0  0  0  0  0  0  0  0
  140.7510  135.4333  141.4197 C   0  0  1  0  0  0  0  0  0  0  0  0
  142.0457  136.0612  141.1156 C   0  0  0  0  0  0  0  0  0  0  0  0
  142.0944  137.1494  140.2789 C   0  0  0  0  0  0  0  0  0  0  0  0
  143.3317  137.7277  139.9988 C   0  0  0  0  0  0  0  0  0  0  0  0
  144.4701  137.2269  140.5429 C   0  0  0  0  0  0  0  0  0  0  0  0
  144.4388  136.1404  141.3871 C   0  0  0  0  0  0  0  0  0  0  0  0
  143.2108  135.5876  141.6484 C   0  0  0  0  0  0  0  0  0  0  0  0
  137.2983  132.2939  139.6801 N   0  0  0  0  0  0  0  0  0  0  0  0
  136.7778  130.9998  139.3165 C   0  0  0  0  0  0  0  0  0  0  0  0
  136.0255  130.9955  138.1123 C   0  0  1  0  0  0  0  0  0  0  0  0
  135.8165  132.1677  137.2584 C   0  0  1  0  0  0  0  0  0  0  0  0
  136.9276  132.4484  136.3115 C   0  0  0  0  0  0  0  0  0  0  0  0
  138.2429  132.3966  136.5921 N   0  0  0  0  0  0  0  0  0  0  0  0
  138.9554  132.7075  135.4846 C   0  0  0  0  0  0  0  0  0  0  0  0
  140.4129  132.7541  135.3628 C   0  0  0  0  0  0  0  0  0  0  0  0
  141.0084  133.9009  134.9239 C   0  0  0  0  0  0  0  0  0  0  0  0
  142.3765  133.9598  134.8107 C   0  0  0  0  0  0  0  0  0  0  0  0
  143.1308  132.8523  135.1483 C   0  0  0  0  0  0  0  0  0  0  0  0
  142.5269  131.6971  135.5921 C   0  0  0  0  0  0  0  0  0  0  0  0
  141.1715  131.6968  135.6805 N   0  0  0  0  0  0  0  0  0  0  0  0
  138.0298  132.9459  134.5440 N   0  0  0  0  0  0  0  0  0  0  0  0
  136.8424  132.7942  135.0336 O   0  0  0  0  0  0  0  0  0  0  0  0
  134.6421  131.6910  136.3780 C   0  0  0  0  0  0  0  0  0  0  0  0
  134.8947  130.2088  136.3509 C   0  0  0  0  0  0  0  0  0  0  0  0
  135.6775  129.8954  137.4616 O   0  0  0  0  0  0  0  0  0  0  0  0
  1  2  2  0
  2  3  1  0
  4  3  1  1
  4  5  1  0
  5  6  1  0
  6  7  1  6
  7  8  2  0
  8  9  1  0
  9 10  2  0
 10 11  1  0
 11 12  2  0
  2 13  1  0
 13 14  1  0
 15 14  1  6
 15 16  1  0
 16 17  1  6
 17 18  2  0
 18 19  1  0
 19 20  1  0
 20 21  2  0
 21 22  1  0
 22 23  2  0
 23 24  1  0
 24 25  2  0
 19 26  2  0
 26 27  1  0
 16 28  1  0
 28 29  1  0
 29 30  1  0
  6  4  1  0
 12  7  1  0
 30 15  1  0
 27 17  1  0
 25 20  1  0
M  END
>  <docking_score>  (1) 
-7.8029999999999999

$$$$

     RDKit          3D

 30 34  0  0  0  0  0  0  0  0999 V2000
  134.3550  121.6973  139.7677 O   0  0  0  0  0  0  0  0  0  0  0  0
  135.4773  122.1855  139.9581 C   0  0  0  0  0  0  0  0  0  0  0  0
  136.5991  121.2855  139.8255 N   0  0  0  0  0  0  0  0  0  0  0  0
  136.3725  119.8766  139.4975 C   0  0  2  0  0  0  0  0  0  0  0  0
  137.4258  118.9102  140.1388 C   0  0  0  0  0  0  0  0  0  0  0  0
  137.5640  119.2880  138.6855 C   0  0  1  0  0  0  0  0  0  0  0  0
  137.2354  118.3137  137.6340 C   0  0  0  0  0  0  0  0  0  0  0  0
  136.1400  118.5215  136.8319 C   0  0  0  0  0  0  0  0  0  0  0  0
  135.8422  117.5840  135.8439 C   0  0  0  0  0  0  0  0  0  0  0  0
  136.6200  116.4844  135.6745 C   0  0  0  0  0  0  0  0  0  0  0  0
  137.7239  116.2633  136.4660 C   0  0  0  0  0  0  0  0  0  0  0  0
  137.9977  117.1985  137.4315 C   0  0  0  0  0  0  0  0  0  0  0  0
  135.6278  123.5372  140.2852 N   0  0  0  0  0  0  0  0  0  0  0  0
  134.5297  124.4585  140.4375 C   0  0  0  0  0  0  0  0  0  0  0  0
  134.2679  125.2434  139.2835 C   0  0  1  0  0  0  0  0  0  0  0  0
  132.9373  125.6977  138.8714 C   0  0  1  0  0  0  0  0  0  0  0  0
  132.4665  126.9313  139.5544 C   0  0  0  0  0  0  0  0  0  0  0  0
  131.1981  127.3791  139.6006 N   0  0  0  0  0  0  0  0  0  0  0  0
  131.1482  128.5272  140.3147 C   0  0  0  0  0  0  0  0  0  0  0  0
  129.9583  129.3258  140.6111 C   0  0  0  0  0  0  0  0  0  0  0  0
  130.0455  130.6875  140.5814 C   0  0  0  0  0  0  0  0  0  0  0  0
  128.9343  131.4489  140.8519 C   0  0  0  0  0  0  0  0  0  0  0  0
  127.7398  130.8201  141.1474 C   0  0  0  0  0  0  0  0  0  0  0  0
  127.6548  129.4460  141.1751 C   0  0  0  0  0  0  0  0  0  0  0  0
  128.7866  128.7461  140.9027 N   0  0  0  0  0  0  0  0  0  0  0  0
  132.4174  128.7479  140.6875 N   0  0  0  0  0  0  0  0  0  0  0  0
  133.1868  127.8106  140.2383 O   0  0  0  0  0  0  0  0  0  0  0  0
  133.2038  126.1179  137.4105 C   0  0  0  0  0  0  0  0  0  0  0  0
  134.6468  126.5323  137.4960 C   0  0  0  0  0  0  0  0  0  0  0  0
  135.1987  125.9057  138.6129 O   0  0  0  0  0  0  0  0  0  0  0  0
  1  2  2  0
  2  3  1  0
  4  3  1  1
  4  5  1  0
  5  6  1  0
  6  7  1  6
  7  8  2  0
  8  9  1  0
  9 10  2  0
 10 11  1  0
 11 12  2  0
  2 13  1  0
 13 14  1  0
 15 14  1  1
 15 16  1  0
 16 17  1  1
 17 18  2  0
 18 19  1  0
 19 20  1  0
 20 21  2  0
 21 22  1  0
 22 23  2  0
 23 24  1  0
 24 25  2  0
 19 26  2  0
 26 27  1  0
 16 28  1  0
 28 29  1  0
 29 30  1  0
  6  4  1  0
 12  7  1  0
 30 15  1  0
 27 17  1  0
 25 20  1  0
M  END
>  <docking_score>  (2) 
-7.5629999999999997

$$$$

     RDKit          3D

 30 34  0  0  0  0  0  0  0  0999 V2000
  132.1993  113.0063  132.0230 O   0  0  0  0  0  0  0  0  0  0  0  0
  132.5705  112.8980  130.8463 C   0  0  0  0  0  0  0  0  0  0  0  0
  131.5293  112.7523  129.8561 N   0  0  0  0  0  0  0  0  0  0  0  0
  130.1248  112.7241  130.2693 C   0  0  2  0  0  0  0  0  0  0  0  0
  129.1403  113.2439  129.1670 C   0  0  0  0  0  0  0  0  0  0  0  0
  129.5187  114.1582  130.3050 C   0  0  1  0  0  0  0  0  0  0  0  0
  128.5518  114.4452  131.3754 C   0  0  0  0  0  0  0  0  0  0  0  0
  127.5727  115.3871  131.1735 C   0  0  0  0  0  0  0  0  0  0  0  0
  126.6685  115.6485  132.2020 C   0  0  0  0  0  0  0  0  0  0  0  0
  126.7510  114.9846  133.3831 C   0  0  0  0  0  0  0  0  0  0  0  0
  127.7226  114.0343  133.6004 C   0  0  0  0  0  0  0  0  0  0  0  0
  128.6013  113.7936  132.5749 C   0  0  0  0  0  0  0  0  0  0  0  0
  133.9297  112.9159  130.5162 N   0  0  0  0  0  0  0  0  0  0  0  0
  134.9934  113.0469  131.4802 C   0  0  0  0  0  0  0  0  0  0  0  0
  136.2414  113.4243  130.9178 C   0  0  1  0  0  0  0  0  0  0  0  0
  136.7094  114.8064  130.7850 C   0  0  1  0  0  0  0  0  0  0  0  0
  137.3353  115.3675  132.0111 C   0  0  0  0  0  0  0  0  0  0  0  0
  136.6847  115.8831  133.0705 N   0  0  0  0  0  0  0  0  0  0  0  0
  137.5810  116.2904  133.9988 C   0  0  0  0  0  0  0  0  0  0  0  0
  137.2857  116.8944  135.2986 C   0  0  0  0  0  0  0  0  0  0  0  0
  137.9060  116.4111  136.4140 C   0  0  0  0  0  0  0  0  0  0  0  0
  137.6421  116.9731  137.6397 C   0  0  0  0  0  0  0  0  0  0  0  0
  136.7513  118.0262  137.7225 C   0  0  0  0  0  0  0  0  0  0  0  0
  136.1282  118.5125  136.5950 C   0  0  0  0  0  0  0  0  0  0  0  0
  136.4258  117.9151  135.4119 N   0  0  0  0  0  0  0  0  0  0  0  0
  138.7761  116.0047  133.4618 N   0  0  0  0  0  0  0  0  0  0  0  0
  138.6272  115.4651  132.2959 O   0  0  0  0  0  0  0  0  0  0  0  0
  137.8673  114.6348  129.7791 C   0  0  0  0  0  0  0  0  0  0  0  0
  138.3146  113.2357  130.1015 C   0  0  0  0  0  0  0  0  0  0  0  0
  137.2484  112.5861  130.7227 O   0  0  0  0  0  0  0  0  0  0  0  0
  1  2  2  0
  2  3  1  0
  4  3  1  6
  4  5  1  0
  5  6  1  0
  6  7  1  1
  7  8  2  0
  8  9  1  0
  9 10  2  0
 10 11  1  0
 11 12  2  0
  2 13  1  0
 13 14  1  0
 15 14  1  1
 15 16  1  0
 16 17  1  1
 17 18  2  0
 18 19  1  0
 19 20  1  0
 20 21  2  0
 21 22  1  0
 22 23  2  0
 23 24  1  0
 24 25  2  0
 19 26  2  0
 26 27  1  0
 16 28  1  0
 28 29  1  0
 29 30  1  0
  6  4  1  0
 12  7  1  0
 30 15  1  0
 27 17  1  0
 25 20  1  0
M  END
>  <docking_score>  (3) 
-7.4950000000000001

$$$$
