
     RDKit          3D

 23 25  0  0  0  0  0  0  0  0999 V2000
  121.2145  121.3426  142.9697 O   0  0  0  0  0  0  0  0  0  0  0  0
  121.6010  122.5054  142.7698 C   0  0  0  0  0  0  0  0  0  0  0  0
  120.8222  123.1538  141.7726 N   0  0  0  0  0  0  0  0  0  0  0  0
  120.7335  124.5115  141.3157 C   0  0  0  0  0  0  0  0  0  0  0  0
  119.6992  124.5333  140.4082 C   0  0  0  0  0  0  0  0  0  0  0  0
  119.3547  125.7065  139.7800 C   0  0  0  0  0  0  0  0  0  0  0  0
  118.0376  125.7568  138.6183 Cl  0  0  0  0  0  0  0  0  0  0  0  0
  120.0806  126.8368  140.0967 C   0  0  0  0  0  0  0  0  0  0  0  0
  121.1218  126.8105  141.0114 C   0  0  0  0  0  0  0  0  0  0  0  0
  121.8307  127.9294  141.3164 F   0  0  0  0  0  0  0  0  0  0  0  0
  121.4402  125.6391  141.6163 C   0  0  0  0  0  0  0  0  0  0  0  0
  122.7099  122.9490  143.5499 N   0  0  0  0  0  0  0  0  0  0  0  0
  123.1206  124.1583  144.2344 C   0  0  1  0  0  0  0  0  0  0  0  0
  124.4466  123.7841  144.9210 C   0  0  0  0  0  0  0  0  0  0  0  0
  125.5319  124.2349  143.9672 C   0  0  1  0  0  0  0  0  0  0  0  0
  124.8032  124.8018  142.7392 C   0  0  0  0  0  0  0  0  0  0  0  0
  123.5388  125.2627  143.3596 C   0  0  1  0  0  0  0  0  0  0  0  0
  122.5733  125.9108  142.5277 C   0  0  0  0  0  0  0  0  0  0  0  0
  122.7147  127.1833  142.5637 O   0  0  0  0  0  0  0  0  0  0  0  0
  126.2806  125.3793  144.5564 C   0  0  0  0  0  0  0  0  0  0  0  0
  127.4975  125.6703  144.1436 C   0  0  0  0  0  0  0  0  0  0  0  0
  128.1307  124.8530  143.0826 C   0  0  0  0  0  0  0  0  0  0  0  0
  129.0450  125.8757  141.9511 Cl  0  0  0  0  0  0  0  0  0  0  0  0
  1  2  2  0
  2  3  1  0
  3  4  1  0
  4  5  2  0
  5  6  1  0
  6  7  1  0
  6  8  2  0
  8  9  1  0
  9 10  1  0
  9 11  2  0
  2 12  1  0
 12 13  1  0
 13 14  1  1
 15 14  1  1
 15 16  1  0
 17 16  1  6
 17 18  1  0
 18 19  2  0
 15 20  1  0
 20 21  2  3
 21 22  1  0
 22 23  1  0
 11  4  1  0
 18 11  1  0
 17 13  1  0
M  END
>  <docking_score>  (1) 
-8.1159999999999997

$$$$

     RDKit          3D

 23 25  0  0  0  0  0  0  0  0999 V2000
  141.2347  134.2834  141.0856 O   0  0  0  0  0  0  0  0  0  0  0  0
  141.5793  134.5867  139.9320 C   0  0  0  0  0  0  0  0  0  0  0  0
  142.3906  135.7542  139.9158 N   0  0  0  0  0  0  0  0  0  0  0  0
  143.1765  136.3974  138.9017 C   0  0  0  0  0  0  0  0  0  0  0  0
  143.8360  137.4252  139.5362 C   0  0  0  0  0  0  0  0  0  0  0  0
  144.6829  138.2449  138.8287 C   0  0  0  0  0  0  0  0  0  0  0  0
  145.5347  139.5627  139.6189 Cl  0  0  0  0  0  0  0  0  0  0  0  0
  144.8365  137.9926  137.4805 C   0  0  0  0  0  0  0  0  0  0  0  0
  144.1703  136.9561  136.8452 C   0  0  0  0  0  0  0  0  0  0  0  0
  144.3283  136.7159  135.5168 F   0  0  0  0  0  0  0  0  0  0  0  0
  143.3406  136.1629  137.5678 C   0  0  0  0  0  0  0  0  0  0  0  0
  141.1122  133.7371  138.8856 N   0  0  0  0  0  0  0  0  0  0  0  0
  141.6279  133.1747  137.6538 C   0  0  1  0  0  0  0  0  0  0  0  0
  140.4907  132.2788  137.1304 C   0  0  0  0  0  0  0  0  0  0  0  0
  139.7272  133.1367  136.1447 C   0  0  1  0  0  0  0  0  0  0  0  0
  140.4086  134.5136  136.1700 C   0  0  0  0  0  0  0  0  0  0  0  0
  141.7889  134.1291  136.5479 C   0  0  1  0  0  0  0  0  0  0  0  0
  142.7773  135.1581  136.6397 C   0  0  0  0  0  0  0  0  0  0  0  0
  143.4227  135.2760  135.5397 O   0  0  0  0  0  0  0  0  0  0  0  0
  139.9213  132.6156  134.7633 C   0  0  0  0  0  0  0  0  0  0  0  0
  139.0078  132.8154  133.8350 C   0  0  0  0  0  0  0  0  0  0  0  0
  137.7738  133.5657  134.1650 C   0  0  0  0  0  0  0  0  0  0  0  0
  136.6233  132.5408  135.0527 Cl  0  0  0  0  0  0  0  0  0  0  0  0
  1  2  2  0
  2  3  1  0
  3  4  1  0
  4  5  2  0
  5  6  1  0
  6  7  1  0
  6  8  2  0
  8  9  1  0
  9 10  1  0
  9 11  2  0
  2 12  1  0
 12 13  1  0
 13 14  1  6
 15 14  1  1
 15 16  1  0
 17 16  1  1
 17 18  1  0
 18 19  2  0
 15 20  1  0
 20 21  2  3
 21 22  1  0
 22 23  1  0
 11  4  1  0
 18 11  1  0
 17 13  1  0
M  END
>  <docking_score>  (2) 
-7.5720000000000001

$$$$

     RDKit          3D

 23 25  0  0  0  0  0  0  0  0999 V2000
  141.3072  133.5780  139.1976 O   0  0  0  0  0  0  0  0  0  0  0  0
  141.2670  133.5146  137.9583 C   0  0  0  0  0  0  0  0  0  0  0  0
  139.9611  133.2034  137.4902 N   0  0  0  0  0  0  0  0  0  0  0  0
  139.3527  133.1970  136.1902 C   0  0  0  0  0  0  0  0  0  0  0  0
  138.0201  132.9271  136.4030 C   0  0  0  0  0  0  0  0  0  0  0  0
  137.1513  132.8517  135.3403 C   0  0  0  0  0  0  0  0  0  0  0  0
  135.4464  132.5085  135.5893 Cl  0  0  0  0  0  0  0  0  0  0  0  0
  137.6690  133.0554  134.0772 C   0  0  0  0  0  0  0  0  0  0  0  0
  139.0121  133.3270  133.8674 C   0  0  0  0  0  0  0  0  0  0  0  0
  139.5121  133.5260  132.6193 F   0  0  0  0  0  0  0  0  0  0  0  0
  139.8468  133.3955  134.9342 C   0  0  0  0  0  0  0  0  0  0  0  0
  142.4926  133.7572  137.2699 N   0  0  0  0  0  0  0  0  0  0  0  0
  142.9276  134.4407  136.0685 C   0  0  1  0  0  0  0  0  0  0  0  0
  144.4604  134.2980  136.0744 C   0  0  0  0  0  0  0  0  0  0  0  0
  144.7529  133.0894  135.2115 C   0  0  1  0  0  0  0  0  0  0  0  0
  143.3844  132.5393  134.7812 C   0  0  0  0  0  0  0  0  0  0  0  0
  142.5711  133.7778  134.8062 C   0  0  1  0  0  0  0  0  0  0  0  0
  141.1988  133.6947  134.4137 C   0  0  0  0  0  0  0  0  0  0  0  0
  141.0573  133.9741  133.1718 O   0  0  0  0  0  0  0  0  0  0  0  0
  145.4296  133.5159  133.9555 C   0  0  0  0  0  0  0  0  0  0  0  0
  146.5793  132.9816  133.5967 C   0  0  0  0  0  0  0  0  0  0  0  0
  147.2082  131.9457  134.4488 C   0  0  0  0  0  0  0  0  0  0  0  0
  146.5985  130.3266  134.0379 Cl  0  0  0  0  0  0  0  0  0  0  0  0
  1  2  2  0
  2  3  1  0
  3  4  1  0
  4  5  2  0
  5  6  1  0
  6  7  1  0
  6  8  2  0
  8  9  1  0
  9 10  1  0
  9 11  2  0
  2 12  1  0
 12 13  1  0
 13 14  1  1
 15 14  1  1
 15 16  1  0
 17 16  1  1
 17 18  1  0
 18 19  2  0
 15 20  1  0
 20 21  2  3
 21 22  1  0
 22 23  1  0
 11  4  1  0
 18 11  1  0
 17 13  1  0
M  END
>  <docking_score>  (3) 
-7.54

$$$$
