
     RDKit          3D

 20 22  0  0  0  0  0  0  0  0999 V2000
  122.6156  128.2795  140.3706 O   0  0  0  0  0  0  0  0  0  0  0  0
  122.1047  127.1375  140.5149 C   0  0  0  0  0  0  0  0  0  0  0  0
  122.8893  126.2896  141.3718 N   0  0  0  0  0  0  0  0  0  0  0  0
  122.5902  124.9709  141.8540 C   0  0  0  0  0  0  0  0  0  0  0  0
  123.3701  124.7878  142.9842 C   0  0  0  0  0  0  0  0  0  0  0  0
  123.3522  123.6255  143.7273 C   0  0  0  0  0  0  0  0  0  0  0  0
  124.3648  123.4404  145.1601 Cl  0  0  0  0  0  0  0  0  0  0  0  0
  122.5132  122.6151  143.3070 C   0  0  0  0  0  0  0  0  0  0  0  0
  121.7260  122.7799  142.1793 C   0  0  0  0  0  0  0  0  0  0  0  0
  120.8883  121.8031  141.7387 F   0  0  0  0  0  0  0  0  0  0  0  0
  121.7506  123.9453  141.4431 C   0  0  0  0  0  0  0  0  0  0  0  0
  120.8742  127.0031  139.7779 N   0  0  0  0  0  0  0  0  0  0  0  0
  119.7994  126.0436  139.9911 C   0  0  1  0  0  0  0  0  0  0  0  0
  118.4888  126.5291  139.4480 C   0  0  0  0  0  0  0  0  0  0  0  0
  117.5084  125.5233  140.0651 C   0  0  0  0  0  0  0  0  0  0  0  0
  118.5876  124.0561  138.8883 S   0  0  2  0  0  0  0  0  0  0  0  0
  120.0811  124.7070  139.3937 C   0  0  2  0  0  0  0  0  0  0  0  0
  120.8223  123.7999  140.3370 C   0  0  0  0  0  0  0  0  0  0  0  0
  120.5903  122.5679  140.1312 O   0  0  0  0  0  0  0  0  0  0  0  0
  117.7865  123.2097  138.0087 Cl  0  0  0  0  0  0  0  0  0  0  0  0
  1  2  2  0
  2  3  1  0
  3  4  1  0
  4  5  2  0
  5  6  1  0
  6  7  1  0
  6  8  2  0
  8  9  1  0
  9 10  1  0
  9 11  2  0
  2 12  1  0
 12 13  1  0
 13 14  1  6
 14 15  1  0
 15 16  1  0
 16 17  1  0
 17 18  1  1
 18 19  2  0
 16 20  1  6
 11  4  1  0
 18 11  1  0
 17 13  1  0
M  END
>  <docking_score>  (1) 
-7.5590000000000002

$$$$

     RDKit          3D

 20 22  0  0  0  0  0  0  0  0999 V2000
  136.8910  118.5021  131.8801 O   0  0  0  0  0  0  0  0  0  0  0  0
  137.2283  117.7599  132.8400 C   0  0  0  0  0  0  0  0  0  0  0  0
  137.0604  118.4027  134.1157 N   0  0  0  0  0  0  0  0  0  0  0  0
  137.2361  117.8551  135.4311 C   0  0  0  0  0  0  0  0  0  0  0  0
  136.5102  118.6675  136.2868 C   0  0  0  0  0  0  0  0  0  0  0  0
  136.4406  118.4507  137.6475 C   0  0  0  0  0  0  0  0  0  0  0  0
  135.5020  119.5144  138.6963 Cl  0  0  0  0  0  0  0  0  0  0  0  0
  137.1325  117.3714  138.1555 C   0  0  0  0  0  0  0  0  0  0  0  0
  137.8638  116.5480  137.3154 C   0  0  0  0  0  0  0  0  0  0  0  0
  138.5569  115.4759  137.7847 F   0  0  0  0  0  0  0  0  0  0  0  0
  137.9273  116.7727  135.9566 C   0  0  0  0  0  0  0  0  0  0  0  0
  137.6884  116.4722  132.3868 N   0  0  0  0  0  0  0  0  0  0  0  0
  137.7711  115.2304  133.1433 C   0  0  1  0  0  0  0  0  0  0  0  0
  137.7486  114.0222  132.2554 C   0  0  0  0  0  0  0  0  0  0  0  0
  137.5274  112.8962  133.2737 C   0  0  0  0  0  0  0  0  0  0  0  0
  139.4505  113.5093  134.0662 S   0  0  2  0  0  0  0  0  0  0  0  0
  138.9855  115.1493  134.0042 C   0  0  2  0  0  0  0  0  0  0  0  0
  138.7647  115.7439  135.3679 C   0  0  0  0  0  0  0  0  0  0  0  0
  139.4970  115.2218  136.2651 O   0  0  0  0  0  0  0  0  0  0  0  0
  140.4610  112.4645  134.2046 Cl  0  0  0  0  0  0  0  0  0  0  0  0
  1  2  2  0
  2  3  1  0
  3  4  1  0
  4  5  2  0
  5  6  1  0
  6  7  1  0
  6  8  2  0
  8  9  1  0
  9 10  1  0
  9 11  2  0
  2 12  1  0
 12 13  1  0
 13 14  1  6
 14 15  1  0
 15 16  1  0
 16 17  1  0
 17 18  1  1
 18 19  2  0
 16 20  1  6
 11  4  1  0
 18 11  1  0
 17 13  1  0
M  END
>  <docking_score>  (2) 
-7.0839999999999996

$$$$
