
     RDKit          3D

 30 32  0  0  0  0  0  0  0  0999 V2000
  137.7425  120.7574  140.7039 C   0  0  0  0  0  0  0  0  0  0  0  0
  138.2262  119.6185  139.8308 C   0  0  0  0  0  0  0  0  0  0  0  0
  137.4975  119.5658  138.5242 C   0  0  2  0  0  0  0  0  0  0  0  0
  136.3015  120.4408  138.4534 C   0  0  0  0  0  0  0  0  0  0  0  0
  137.2151  118.1755  138.0565 C   0  0  2  0  0  0  0  0  0  0  0  0
  137.2023  118.0591  136.6189 N   0  0  0  0  0  0  0  0  0  0  0  0
  137.6479  116.9237  135.9131 C   0  0  0  0  0  0  0  0  0  0  0  0
  138.0940  115.9286  136.5675 O   0  0  0  0  0  0  0  0  0  0  0  0
  137.5963  116.9020  134.4973 N   0  0  0  0  0  0  0  0  0  0  0  0
  138.8154  117.0870  133.7526 C   0  0  0  0  0  0  0  0  0  0  0  0
  139.0066  115.8703  132.8848 C   0  0  0  0  0  0  0  0  0  0  0  0
  137.7422  115.5502  132.1755 C   0  0  0  0  0  0  0  0  0  0  0  0
  136.5935  116.4494  132.3795 C   0  0  0  0  0  0  0  0  0  0  0  0
  136.3478  116.6894  133.8264 C   0  0  0  0  0  0  0  0  0  0  0  0
  138.0710  115.2522  130.6969 C   0  0  0  0  0  0  0  0  0  0  0  0
  138.5184  113.9751  131.2002 N   0  0  0  0  0  0  0  0  0  0  0  0
  138.6561  112.8846  130.3249 C   0  0  0  0  0  0  0  0  0  0  0  0
  139.3959  111.7764  131.0652 C   0  0  0  0  0  0  0  0  0  0  0  0
  139.5163  113.2631  129.1440 C   0  0  0  0  0  0  0  0  0  0  0  0
  137.4284  114.0366  132.1282 C   0  0  2  0  0  0  0  0  0  0  0  0
  136.0568  113.9039  131.5901 C   0  0  0  0  0  0  0  0  0  0  0  0
  135.6750  114.2565  130.3193 C   0  0  0  0  0  0  0  0  0  0  0  0
  134.3657  114.0831  129.9049 C   0  0  0  0  0  0  0  0  0  0  0  0
  133.4187  113.5613  130.7369 C   0  0  0  0  0  0  0  0  0  0  0  0
  131.7420  113.3145  130.2702 Cl  0  0  0  0  0  0  0  0  0  0  0  0
  133.8074  113.2119  132.0046 C   0  0  0  0  0  0  0  0  0  0  0  0
  135.1059  113.3770  132.4343 C   0  0  0  0  0  0  0  0  0  0  0  0
  135.8462  117.7627  138.5236 C   0  0  0  0  0  0  0  0  0  0  0  0
  134.8596  117.7361  137.5983 F   0  0  0  0  0  0  0  0  0  0  0  0
  135.6006  117.4611  139.6665 O   0  0  0  0  0  0  0  0  0  0  0  0
  1  2  1  0
  2  3  1  0
  3  4  1  1
  3  5  1  0
  5  6  1  6
  6  7  1  0
  7  8  2  0
  7  9  1  0
  9 10  1  0
 10 11  1  0
 11 12  1  0
 12 13  1  0
 13 14  1  0
 12 15  1  0
 15 16  1  0
 16 17  1  0
 17 18  1  0
 17 19  1  0
 16 20  1  0
 20 21  1  6
 21 22  2  0
 22 23  1  0
 23 24  2  0
 24 25  1  0
 24 26  1  0
 26 27  2  0
  5 28  1  0
 28 29  1  0
 28 30  2  0
 14  9  1  0
 20 12  1  0
 27 21  1  0
M  END
>  <docking_score>  (1) 
-7.3490000000000002

$$$$

     RDKit          3D

 30 32  0  0  0  0  0  0  0  0999 V2000
  135.5587  117.6844  138.5304 C   0  0  0  0  0  0  0  0  0  0  0  0
  134.7720  118.7533  139.2597 C   0  0  0  0  0  0  0  0  0  0  0  0
  135.3787  120.1109  139.0876 C   0  0  2  0  0  0  0  0  0  0  0  0
  136.4349  120.1833  138.0482 C   0  0  0  0  0  0  0  0  0  0  0  0
  135.8012  120.7409  140.3744 C   0  0  2  0  0  0  0  0  0  0  0  0
  135.7272  122.1811  140.3448 N   0  0  0  0  0  0  0  0  0  0  0  0
  134.5252  122.9096  140.2429 C   0  0  0  0  0  0  0  0  0  0  0  0
  133.4256  122.2748  140.1706 O   0  0  0  0  0  0  0  0  0  0  0  0
  134.5529  124.3260  140.2212 N   0  0  0  0  0  0  0  0  0  0  0  0
  135.6292  124.9915  139.5328 C   0  0  0  0  0  0  0  0  0  0  0  0
  135.0163  125.8664  138.4701 C   0  0  0  0  0  0  0  0  0  0  0  0
  133.8997  126.6569  139.0465 C   0  0  0  0  0  0  0  0  0  0  0  0
  133.6244  126.5085  140.4860 C   0  0  0  0  0  0  0  0  0  0  0  0
  133.5172  125.0756  140.8688 C   0  0  0  0  0  0  0  0  0  0  0  0
  134.0324  128.1174  138.5644 C   0  0  0  0  0  0  0  0  0  0  0  0
  133.4932  127.6092  137.3254 N   0  0  0  0  0  0  0  0  0  0  0  0
  132.9244  128.4926  136.3924 C   0  0  0  0  0  0  0  0  0  0  0  0
  132.9944  127.8364  135.0184 C   0  0  0  0  0  0  0  0  0  0  0  0
  133.7368  129.7616  136.3062 C   0  0  0  0  0  0  0  0  0  0  0  0
  132.6662  126.7487  138.1183 C   0  0  2  0  0  0  0  0  0  0  0  0
  131.5836  127.3718  138.9109 C   0  0  0  0  0  0  0  0  0  0  0  0
  131.7012  128.5458  139.6130 C   0  0  0  0  0  0  0  0  0  0  0  0
  130.6238  129.0549  140.3173 C   0  0  0  0  0  0  0  0  0  0  0  0
  129.4197  128.4136  140.3382 C   0  0  0  0  0  0  0  0  0  0  0  0
  128.0147  129.0090  141.2107 Cl  0  0  0  0  0  0  0  0  0  0  0  0
  129.3101  127.2416  139.6350 C   0  0  0  0  0  0  0  0  0  0  0  0
  130.3714  126.7201  138.9282 C   0  0  0  0  0  0  0  0  0  0  0  0
  137.2410  120.3998  140.6452 C   0  0  0  0  0  0  0  0  0  0  0  0
  137.5272  119.1083  140.9289 F   0  0  0  0  0  0  0  0  0  0  0  0
  138.1300  121.2162  140.6192 O   0  0  0  0  0  0  0  0  0  0  0  0
  1  2  1  0
  2  3  1  0
  3  4  1  6
  3  5  1  0
  5  6  1  6
  6  7  1  0
  7  8  2  0
  7  9  1  0
  9 10  1  0
 10 11  1  0
 11 12  1  0
 12 13  1  0
 13 14  1  0
 12 15  1  0
 15 16  1  0
 16 17  1  0
 17 18  1  0
 17 19  1  0
 16 20  1  0
 20 21  1  1
 21 22  2  0
 22 23  1  0
 23 24  2  0
 24 25  1  0
 24 26  1  0
 26 27  2  0
  5 28  1  0
 28 29  1  0
 28 30  2  0
 14  9  1  0
 20 12  1  0
 27 21  1  0
M  END
>  <docking_score>  (2) 
-7.0469999999999997

$$$$

     RDKit          3D

 30 32  0  0  0  0  0  0  0  0999 V2000
  128.2248  133.8530  137.3883 C   0  0  0  0  0  0  0  0  0  0  0  0
  129.2883  133.9190  138.4643 C   0  0  0  0  0  0  0  0  0  0  0  0
  129.0024  134.9906  139.4697 C   0  0  2  0  0  0  0  0  0  0  0  0
  128.5676  136.2820  138.8826 C   0  0  0  0  0  0  0  0  0  0  0  0
  130.0876  135.1612  140.4818 C   0  0  2  0  0  0  0  0  0  0  0  0
  131.1208  134.1609  140.3704 N   0  0  0  0  0  0  0  0  0  0  0  0
  132.4601  134.4409  140.0330 C   0  0  0  0  0  0  0  0  0  0  0  0
  132.7985  135.6460  139.8081 O   0  0  0  0  0  0  0  0  0  0  0  0
  133.4058  133.3893  139.9476 N   0  0  0  0  0  0  0  0  0  0  0  0
  133.0127  132.0641  140.3529 C   0  0  0  0  0  0  0  0  0  0  0  0
  133.2074  131.1510  139.1703 C   0  0  0  0  0  0  0  0  0  0  0  0
  134.5452  131.3795  138.5686 C   0  0  0  0  0  0  0  0  0  0  0  0
  135.4317  132.3608  139.2174 C   0  0  0  0  0  0  0  0  0  0  0  0
  134.7268  133.6483  139.4558 C   0  0  0  0  0  0  0  0  0  0  0  0
  135.1982  130.0088  138.2895 C   0  0  0  0  0  0  0  0  0  0  0  0
  134.3088  129.9744  137.1529 N   0  0  0  0  0  0  0  0  0  0  0  0
  134.5709  129.1030  136.0822 C   0  0  0  0  0  0  0  0  0  0  0  0
  133.2684  128.8869  135.3204 C   0  0  0  0  0  0  0  0  0  0  0  0
  134.9986  127.7504  136.5974 C   0  0  0  0  0  0  0  0  0  0  0  0
  134.5328  131.3836  137.0222 C   0  0  2  0  0  0  0  0  0  0  0  0
  135.8743  131.8309  136.5879 C   0  0  0  0  0  0  0  0  0  0  0  0
  137.0587  131.4093  137.1397 C   0  0  0  0  0  0  0  0  0  0  0  0
  138.2671  131.8790  136.6546 C   0  0  0  0  0  0  0  0  0  0  0  0
  138.3222  132.7689  135.6220 C   0  0  0  0  0  0  0  0  0  0  0  0
  139.8233  133.4006  134.9603 Cl  0  0  0  0  0  0  0  0  0  0  0  0
  137.1353  133.1856  135.0763 C   0  0  0  0  0  0  0  0  0  0  0  0
  135.9234  132.7287  135.5458 C   0  0  0  0  0  0  0  0  0  0  0  0
  129.5074  135.0138  141.8618 C   0  0  0  0  0  0  0  0  0  0  0  0
  128.9359  136.1096  142.4120 F   0  0  0  0  0  0  0  0  0  0  0  0
  129.5319  133.9784  142.4822 O   0  0  0  0  0  0  0  0  0  0  0  0
  1  2  1  0
  2  3  1  0
  3  4  1  6
  3  5  1  0
  5  6  1  6
  6  7  1  0
  7  8  2  0
  7  9  1  0
  9 10  1  0
 10 11  1  0
 11 12  1  0
 12 13  1  0
 13 14  1  0
 12 15  1  0
 15 16  1  0
 16 17  1  0
 17 18  1  0
 17 19  1  0
 16 20  1  0
 20 21  1  6
 21 22  2  0
 22 23  1  0
 23 24  2  0
 24 25  1  0
 24 26  1  0
 26 27  2  0
  5 28  1  0
 28 29  1  0
 28 30  2  0
 14  9  1  0
 20 12  1  0
 27 21  1  0
M  END
>  <docking_score>  (3) 
-6.5119999999999996

$$$$
