
     RDKit          3D

 22 24  0  0  0  0  0  0  0  0999 V2000
  121.9945  123.1605  141.0822 O   0  0  0  0  0  0  0  0  0  0  0  0
  121.3030  124.1884  141.3119 C   0  0  0  0  0  0  0  0  0  0  0  0
  121.7814  125.0935  142.2690 N   0  0  0  0  0  0  0  0  0  0  0  0
  123.0095  124.8376  142.9452 C   0  0  0  0  0  0  0  0  0  0  0  0
  124.1840  125.4574  142.5772 C   0  0  0  0  0  0  0  0  0  0  0  0
  125.3842  125.2393  143.2007 C   0  0  0  0  0  0  0  0  0  0  0  0
  126.8687  126.0375  142.7180 Cl  0  0  0  0  0  0  0  0  0  0  0  0
  125.4359  124.3569  144.2524 C   0  0  0  0  0  0  0  0  0  0  0  0
  124.2835  123.7162  144.6518 C   0  0  0  0  0  0  0  0  0  0  0  0
  124.3929  122.8550  145.6963 F   0  0  0  0  0  0  0  0  0  0  0  0
  123.0886  123.9531  144.0079 C   0  0  0  0  0  0  0  0  0  0  0  0
  120.0659  124.4198  140.6125 N   0  0  0  0  0  0  0  0  0  0  0  0
  119.5176  125.6792  140.1873 C   0  0  0  0  0  0  0  0  0  0  0  0
  120.0261  127.0485  139.9892 C   0  0  0  0  0  0  0  0  0  0  0  0
  119.4571  127.6551  138.7624 C   0  0  0  0  0  0  0  0  0  0  0  0
  117.5637  127.0852  139.4065 S   0  0  1  0  0  0  0  0  0  0  0  0
  118.2296  125.5492  139.9270 C   0  0  0  0  0  0  0  0  0  0  0  0
  117.7911  124.1506  140.1628 C   0  0  0  0  0  0  0  0  0  0  0  0
  119.1163  123.4155  140.1938 C   0  0  1  0  0  0  0  0  0  0  0  0
  119.4579  122.8832  138.8967 N   0  0  0  0  0  0  0  0  0  0  0  0
  118.9077  121.8977  138.4663 O   0  0  0  0  0  0  0  0  0  0  0  0
  117.5596  128.2309  140.9903 F   0  0  0  0  0  0  0  0  0  0  0  0
  1  2  2  0
  2  3  1  0
  3  4  1  0
  4  5  2  0
  5  6  1  0
  6  7  1  0
  6  8  2  0
  8  9  1  0
  9 10  1  0
  9 11  2  0
  2 12  1  0
 12 13  1  0
 13 14  1  0
 14 15  1  0
 15 16  1  0
 16 17  1  0
 17 18  1  0
 18 19  1  0
 19 20  1  6
 20 21  2  0
 16 22  1  1
 11  4  1  0
 19 12  1  0
 13 17  2  0
M  END
>  <docking_score>  (1) 
-7.4029999999999996

$$$$

     RDKit          3D

 22 24  0  0  0  0  0  0  0  0999 V2000
  135.8385  117.3534  137.2196 O   0  0  0  0  0  0  0  0  0  0  0  0
  136.8754  117.5476  136.5307 C   0  0  0  0  0  0  0  0  0  0  0  0
  137.8006  118.4901  136.9995 N   0  0  0  0  0  0  0  0  0  0  0  0
  137.5544  119.1912  138.2155 C   0  0  0  0  0  0  0  0  0  0  0  0
  136.5597  120.1393  138.3185 C   0  0  0  0  0  0  0  0  0  0  0  0
  136.2910  120.8348  139.4679 C   0  0  0  0  0  0  0  0  0  0  0  0
  135.0206  122.0378  139.5798 Cl  0  0  0  0  0  0  0  0  0  0  0  0
  137.0461  120.5844  140.5879 C   0  0  0  0  0  0  0  0  0  0  0  0
  138.0508  119.6436  140.5268 C   0  0  0  0  0  0  0  0  0  0  0  0
  138.7652  119.4369  141.6632 F   0  0  0  0  0  0  0  0  0  0  0  0
  138.3009  118.9576  139.3583 C   0  0  0  0  0  0  0  0  0  0  0  0
  137.0965  116.8238  135.3059 N   0  0  0  0  0  0  0  0  0  0  0  0
  137.4566  117.3583  134.0204 C   0  0  0  0  0  0  0  0  0  0  0  0
  138.0102  118.6266  133.5127 C   0  0  0  0  0  0  0  0  0  0  0  0
  139.0125  118.3815  132.4488 C   0  0  0  0  0  0  0  0  0  0  0  0
  137.6482  117.1253  131.5079 S   0  0  1  0  0  0  0  0  0  0  0  0
  137.2062  116.4725  133.0738 C   0  0  0  0  0  0  0  0  0  0  0  0
  136.6397  115.2320  133.6605 C   0  0  0  0  0  0  0  0  0  0  0  0
  136.9981  115.3945  135.1243 C   0  0  1  0  0  0  0  0  0  0  0  0
  138.2456  114.7413  135.4404 N   0  0  0  0  0  0  0  0  0  0  0  0
  138.3006  113.5424  135.5771 O   0  0  0  0  0  0  0  0  0  0  0  0
  136.3434  118.5299  131.1260 F   0  0  0  0  0  0  0  0  0  0  0  0
  1  2  2  0
  2  3  1  0
  3  4  1  0
  4  5  2  0
  5  6  1  0
  6  7  1  0
  6  8  2  0
  8  9  1  0
  9 10  1  0
  9 11  2  0
  2 12  1  0
 12 13  1  0
 13 14  1  0
 14 15  1  0
 15 16  1  0
 16 17  1  0
 17 18  1  0
 18 19  1  0
 19 20  1  6
 20 21  2  0
 16 22  1  1
 11  4  1  0
 19 12  1  0
 13 17  2  0
M  END
>  <docking_score>  (2) 
-7.3899999999999997

$$$$

     RDKit          3D

 22 24  0  0  0  0  0  0  0  0999 V2000
  140.3474  131.6052  137.0994 O   0  0  0  0  0  0  0  0  0  0  0  0
  139.9491  132.6100  137.7469 C   0  0  0  0  0  0  0  0  0  0  0  0
  139.7540  133.8040  137.0395 N   0  0  0  0  0  0  0  0  0  0  0  0
  140.0043  133.8544  135.6375 C   0  0  0  0  0  0  0  0  0  0  0  0
  141.2642  134.0934  135.1329 C   0  0  0  0  0  0  0  0  0  0  0  0
  141.5465  134.1497  133.7935 C   0  0  0  0  0  0  0  0  0  0  0  0
  143.1565  134.4551  133.1702 Cl  0  0  0  0  0  0  0  0  0  0  0  0
  140.5282  133.9593  132.8912 C   0  0  0  0  0  0  0  0  0  0  0  0
  139.2535  133.7175  133.3548 C   0  0  0  0  0  0  0  0  0  0  0  0
  138.2862  133.5369  132.4187 F   0  0  0  0  0  0  0  0  0  0  0  0
  138.9958  133.6659  134.7073 C   0  0  0  0  0  0  0  0  0  0  0  0
  139.7047  132.5284  139.1634 N   0  0  0  0  0  0  0  0  0  0  0  0
  140.3745  133.2450  140.2148 C   0  0  0  0  0  0  0  0  0  0  0  0
  141.2317  134.4405  140.3090 C   0  0  0  0  0  0  0  0  0  0  0  0
  140.8811  135.2543  141.4970 C   0  0  0  0  0  0  0  0  0  0  0  0
  140.9754  133.5304  142.6564 S   0  0  1  0  0  0  0  0  0  0  0  0
  140.1599  132.6537  141.3758 C   0  0  0  0  0  0  0  0  0  0  0  0
  139.3032  131.4545  141.1970 C   0  0  0  0  0  0  0  0  0  0  0  0
  138.7224  131.6963  139.8179 C   0  0  1  0  0  0  0  0  0  0  0  0
  137.4424  132.3589  139.8904 N   0  0  0  0  0  0  0  0  0  0  0  0
  136.8338  132.4199  140.9320 O   0  0  0  0  0  0  0  0  0  0  0  0
  142.8867  133.2300  142.3777 F   0  0  0  0  0  0  0  0  0  0  0  0
  1  2  2  0
  2  3  1  0
  3  4  1  0
  4  5  2  0
  5  6  1  0
  6  7  1  0
  6  8  2  0
  8  9  1  0
  9 10  1  0
  9 11  2  0
  2 12  1  0
 12 13  1  0
 13 14  1  0
 14 15  1  0
 15 16  1  0
 16 17  1  0
 17 18  1  0
 18 19  1  0
 19 20  1  1
 20 21  2  0
 16 22  1  6
 11  4  1  0
 19 12  1  0
 13 17  2  0
M  END
>  <docking_score>  (3) 
-6.5739999999999998

$$$$
