
     RDKit          3D

 24 26  0  0  0  0  0  0  0  0999 V2000
  128.6570  123.6155  142.3338 O   0  0  0  0  0  0  0  0  0  0  0  0
  128.6794  124.8489  142.1310 C   0  0  0  0  0  0  0  0  0  0  0  0
  129.6452  125.3600  141.2641 N   0  0  0  0  0  0  0  0  0  0  0  0
  130.6178  124.4893  140.5920 C   0  0  1  0  0  0  0  0  0  0  0  0
  131.2017  125.1827  139.3434 C   0  0  0  0  0  0  0  0  0  0  0  0
  132.0481  124.8831  140.6257 C   0  0  2  0  0  0  0  0  0  0  0  0
  133.0697  123.8494  140.3605 C   0  0  0  0  0  0  0  0  0  0  0  0
  134.4082  124.1890  140.1454 C   0  0  0  0  0  0  0  0  0  0  0  0
  135.3473  123.2149  139.8972 C   0  0  0  0  0  0  0  0  0  0  0  0
  135.0145  121.8979  139.8516 C   0  0  0  0  0  0  0  0  0  0  0  0
  133.7035  121.5228  140.0597 C   0  0  0  0  0  0  0  0  0  0  0  0
  132.7639  122.5066  140.3089 C   0  0  0  0  0  0  0  0  0  0  0  0
  127.7171  125.7002  142.7899 N   0  0  0  0  0  0  0  0  0  0  0  0
  126.7436  125.0883  143.6737 C   0  0  0  0  0  0  0  0  0  0  0  0
  125.3463  125.4505  143.3010 C   0  0  0  0  0  0  0  0  0  0  0  0
  124.4673  125.2243  144.4796 C   0  0  2  0  0  0  0  0  0  0  0  0
  124.2902  123.7854  144.8131 C   0  0  0  0  0  0  0  0  0  0  0  0
  123.5233  122.8348  144.3316 N   0  0  0  0  0  0  0  0  0  0  0  0
  122.5720  122.8522  143.3003 C   0  0  0  0  0  0  0  0  0  0  0  0
  121.9449  123.7004  142.5814 N   0  0  0  0  0  0  0  0  0  0  0  0
  121.9328  125.0801  142.5022 O   0  0  0  0  0  0  0  0  0  0  0  0
  123.2319  126.0459  144.5485 C   0  0  0  0  0  0  0  0  0  0  0  0
  122.5185  126.0949  143.2410 C   0  0  0  0  0  0  0  0  0  0  0  0
  122.4138  127.2005  142.6998 O   0  0  0  0  0  0  0  0  0  0  0  0
  1  2  2  0
  2  3  1  0
  4  3  1  1
  4  5  1  0
  5  6  1  0
  6  7  1  6
  7  8  2  0
  8  9  1  0
  9 10  2  0
 10 11  1  0
 11 12  2  0
  2 13  1  0
 13 14  1  0
 14 15  1  0
 16 15  1  6
 16 17  1  0
 17 18  2  3
 18 19  1  0
 19 20  2  3
 20 21  1  0
 16 22  1  0
 22 23  1  0
 23 24  2  0
  6  4  1  0
 12  7  1  0
 23 21  1  0
M  END
>  <docking_score>  (1) 
-7.4260000000000002

$$$$

     RDKit          3D

 24 26  0  0  0  0  0  0  0  0999 V2000
  134.2504  124.6692  139.2202 O   0  0  0  0  0  0  0  0  0  0  0  0
  134.2800  124.4589  140.4522 C   0  0  0  0  0  0  0  0  0  0  0  0
  135.0710  123.4126  140.9265 N   0  0  0  0  0  0  0  0  0  0  0  0
  135.8611  122.5698  140.0204 C   0  0  1  0  0  0  0  0  0  0  0  0
  137.3121  122.4322  140.5268 C   0  0  0  0  0  0  0  0  0  0  0  0
  136.2993  121.2387  140.5086 C   0  0  2  0  0  0  0  0  0  0  0  0
  136.6947  120.2192  139.5153 C   0  0  0  0  0  0  0  0  0  0  0  0
  135.9336  119.9913  138.3656 C   0  0  0  0  0  0  0  0  0  0  0  0
  136.3137  119.0364  137.4512 C   0  0  0  0  0  0  0  0  0  0  0  0
  137.4323  118.2846  137.6277 C   0  0  0  0  0  0  0  0  0  0  0  0
  138.2101  118.4805  138.7498 C   0  0  0  0  0  0  0  0  0  0  0  0
  137.8230  119.4421  139.6654 C   0  0  0  0  0  0  0  0  0  0  0  0
  133.5057  125.2942  141.3396 N   0  0  0  0  0  0  0  0  0  0  0  0
  132.7120  126.3635  140.7655 C   0  0  0  0  0  0  0  0  0  0  0  0
  131.2827  126.2828  141.1815 C   0  0  0  0  0  0  0  0  0  0  0  0
  131.1730  126.7394  142.5930 C   0  0  2  0  0  0  0  0  0  0  0  0
  130.7890  125.6530  143.5339 C   0  0  0  0  0  0  0  0  0  0  0  0
  129.6427  125.0976  143.8524 N   0  0  0  0  0  0  0  0  0  0  0  0
  128.3392  125.3495  143.3981 C   0  0  0  0  0  0  0  0  0  0  0  0
  127.7075  126.2269  142.7195 N   0  0  0  0  0  0  0  0  0  0  0  0
  128.0651  127.4027  142.0873 O   0  0  0  0  0  0  0  0  0  0  0  0
  130.4887  128.0388  142.8147 C   0  0  0  0  0  0  0  0  0  0  0  0
  129.2295  128.1503  142.0254 C   0  0  0  0  0  0  0  0  0  0  0  0
  129.1802  129.0402  141.1700 O   0  0  0  0  0  0  0  0  0  0  0  0
  1  2  2  0
  2  3  1  0
  4  3  1  1
  4  5  1  0
  5  6  1  0
  6  7  1  6
  7  8  2  0
  8  9  1  0
  9 10  2  0
 10 11  1  0
 11 12  2  0
  2 13  1  0
 13 14  1  0
 14 15  1  0
 16 15  1  6
 16 17  1  0
 17 18  2  3
 18 19  1  0
 19 20  2  3
 20 21  1  0
 16 22  1  0
 22 23  1  0
 23 24  2  0
  6  4  1  0
 12  7  1  0
 23 21  1  0
M  END
>  <docking_score>  (2) 
-6.8630000000000004

$$$$

     RDKit          3D

 24 26  0  0  0  0  0  0  0  0999 V2000
  135.6626  118.4515  139.0136 O   0  0  0  0  0  0  0  0  0  0  0  0
  136.1614  119.4699  138.4874 C   0  0  0  0  0  0  0  0  0  0  0  0
  137.0366  119.2999  137.4147 N   0  0  0  0  0  0  0  0  0  0  0  0
  137.3739  117.9680  136.8970 C   0  0  1  0  0  0  0  0  0  0  0  0
  136.3224  117.4974  135.8706 C   0  0  0  0  0  0  0  0  0  0  0  0
  137.7948  117.8560  135.4784 C   0  0  2  0  0  0  0  0  0  0  0  0
  138.5426  116.6532  135.0584 C   0  0  0  0  0  0  0  0  0  0  0  0
  139.2726  116.6306  133.8669 C   0  0  0  0  0  0  0  0  0  0  0  0
  139.9617  115.5018  133.4883 C   0  0  0  0  0  0  0  0  0  0  0  0
  139.9599  114.3758  134.2495 C   0  0  0  0  0  0  0  0  0  0  0  0
  139.2515  114.3591  135.4329 C   0  0  0  0  0  0  0  0  0  0  0  0
  138.5609  115.4970  135.8084 C   0  0  0  0  0  0  0  0  0  0  0  0
  135.8220  120.7777  138.9965 N   0  0  0  0  0  0  0  0  0  0  0  0
  134.9010  120.8674  140.1131 C   0  0  0  0  0  0  0  0  0  0  0  0
  135.0841  122.1279  140.8878 C   0  0  0  0  0  0  0  0  0  0  0  0
  135.3455  123.2379  139.9326 C   0  0  2  0  0  0  0  0  0  0  0  0
  136.3209  124.2371  140.4455 C   0  0  0  0  0  0  0  0  0  0  0  0
  136.2216  125.2568  141.2666 N   0  0  0  0  0  0  0  0  0  0  0  0
  135.1199  125.7727  141.9659 C   0  0  0  0  0  0  0  0  0  0  0  0
  133.8494  125.6514  141.9881 N   0  0  0  0  0  0  0  0  0  0  0  0
  132.9371  124.8969  141.2749 O   0  0  0  0  0  0  0  0  0  0  0  0
  134.1598  123.8080  139.2435 C   0  0  0  0  0  0  0  0  0  0  0  0
  133.0285  124.0496  140.1831 C   0  0  0  0  0  0  0  0  0  0  0  0
  131.9903  123.4093  139.9879 O   0  0  0  0  0  0  0  0  0  0  0  0
  1  2  2  0
  2  3  1  0
  4  3  1  6
  4  5  1  0
  5  6  1  0
  6  7  1  1
  7  8  2  0
  8  9  1  0
  9 10  2  0
 10 11  1  0
 11 12  2  0
  2 13  1  0
 13 14  1  0
 14 15  1  0
 16 15  1  1
 16 17  1  0
 17 18  2  3
 18 19  1  0
 19 20  2  3
 20 21  1  0
 16 22  1  0
 22 23  1  0
 23 24  2  0
  6  4  1  0
 12  7  1  0
 23 21  1  0
M  END
>  <docking_score>  (3) 
-6.7699999999999996

$$$$
