
     RDKit          3D

 30 34  0  0  0  0  0  0  0  0999 V2000
  130.2709  129.6180  139.7454 O   0  0  0  0  0  0  0  0  0  0  0  0
  130.1603  128.7057  138.8976 C   0  0  0  0  0  0  0  0  0  0  0  0
  130.2784  129.0578  137.5225 N   0  0  0  0  0  0  0  0  0  0  0  0
  130.5239  130.4225  137.0941 C   0  0  2  0  0  0  0  0  0  0  0  0
  130.4075  130.5158  135.5364 C   0  0  0  0  0  0  0  0  0  0  0  0
  131.7565  130.5481  136.1592 C   0  0  1  0  0  0  0  0  0  0  0  0
  132.4949  131.8290  136.1918 C   0  0  0  0  0  0  0  0  0  0  0  0
  131.7468  132.9879  136.0840 C   0  0  0  0  0  0  0  0  0  0  0  0
  132.3658  134.2044  136.1089 C   0  0  0  0  0  0  0  0  0  0  0  0
  133.7394  134.3195  136.2406 C   0  0  0  0  0  0  0  0  0  0  0  0
  134.4454  133.1351  136.3450 C   0  0  0  0  0  0  0  0  0  0  0  0
  133.8605  131.8896  136.3243 C   0  0  0  0  0  0  0  0  0  0  0  0
  129.9290  127.4118  139.3653 N   0  0  0  0  0  0  0  0  0  0  0  0
  129.7874  126.9064  140.6629 C   0  0  0  0  0  0  0  0  0  0  0  0
  130.9256  126.2660  141.3457 C   0  0  1  0  0  0  0  0  0  0  0  0
  130.4177  125.0115  142.0835 C   0  0  1  0  0  0  0  0  0  0  0  0
  129.0865  125.3319  142.6794 C   0  0  0  0  0  0  0  0  0  0  0  0
  127.9619  124.6198  142.5765 N   0  0  0  0  0  0  0  0  0  0  0  0
  127.0296  125.2997  143.2816 C   0  0  0  0  0  0  0  0  0  0  0  0
  125.6416  124.9295  143.4766 C   0  0  0  0  0  0  0  0  0  0  0  0
  125.2741  123.9744  144.3809 C   0  0  0  0  0  0  0  0  0  0  0  0
  123.9643  123.6100  144.5597 C   0  0  0  0  0  0  0  0  0  0  0  0
  123.0000  124.2297  143.8049 C   0  0  0  0  0  0  0  0  0  0  0  0
  123.4161  125.1888  142.9042 C   0  0  0  0  0  0  0  0  0  0  0  0
  124.7001  125.5469  142.7271 N   0  0  0  0  0  0  0  0  0  0  0  0
  127.6204  126.3939  143.7820 N   0  0  0  0  0  0  0  0  0  0  0  0
  128.8411  126.3722  143.3993 O   0  0  0  0  0  0  0  0  0  0  0  0
  130.2549  124.0089  140.9533 C   0  0  0  0  0  0  0  0  0  0  0  0
  131.0606  124.5308  139.7893 C   0  0  0  0  0  0  0  0  0  0  0  0
  131.8976  125.6719  140.3747 C   0  0  0  0  0  0  0  0  0  0  0  0
  1  2  2  0
  2  3  1  0
  4  3  1  6
  4  5  1  0
  5  6  1  0
  6  7  1  1
  7  8  2  0
  8  9  1  0
  9 10  2  0
 10 11  1  0
 11 12  2  0
  2 13  1  0
 13 14  1  0
 15 14  1  6
 15 16  1  0
 16 17  1  6
 17 18  2  0
 18 19  1  0
 19 20  1  0
 20 21  2  0
 21 22  1  0
 22 23  2  0
 23 24  1  0
 24 25  2  0
 19 26  2  0
 26 27  1  0
 16 28  1  0
 28 29  1  0
 29 30  1  0
  6  4  1  0
 12  7  1  0
 30 15  1  0
 27 17  1  0
 25 20  1  0
M  END
>  <docking_score>  (1) 
-8.0939999999999994

$$$$

     RDKit          3D

 30 34  0  0  0  0  0  0  0  0999 V2000
  126.1837  126.3976  141.9769 O   0  0  0  0  0  0  0  0  0  0  0  0
  126.8404  125.9183  142.9268 C   0  0  0  0  0  0  0  0  0  0  0  0
  126.1255  125.2331  143.9506 N   0  0  0  0  0  0  0  0  0  0  0  0
  124.6829  125.0787  143.9131 C   0  0  2  0  0  0  0  0  0  0  0  0
  124.1369  124.8655  145.3640 C   0  0  0  0  0  0  0  0  0  0  0  0
  124.2105  123.6994  144.4456 C   0  0  1  0  0  0  0  0  0  0  0  0
  122.9555  123.1572  143.8818 C   0  0  0  0  0  0  0  0  0  0  0  0
  122.1330  124.0452  143.2117 C   0  0  0  0  0  0  0  0  0  0  0  0
  120.9602  123.6097  142.6654 C   0  0  0  0  0  0  0  0  0  0  0  0
  120.5595  122.2877  142.7606 C   0  0  0  0  0  0  0  0  0  0  0  0
  121.4130  121.4370  143.4389 C   0  0  0  0  0  0  0  0  0  0  0  0
  122.6030  121.8354  144.0038 C   0  0  0  0  0  0  0  0  0  0  0  0
  128.2245  126.0926  142.9101 N   0  0  0  0  0  0  0  0  0  0  0  0
  129.0675  126.7322  141.9939 C   0  0  0  0  0  0  0  0  0  0  0  0
  129.7600  125.9595  140.9473 C   0  0  1  0  0  0  0  0  0  0  0  0
  131.0767  126.6777  140.5918 C   0  0  1  0  0  0  0  0  0  0  0  0
  130.8161  128.1481  140.5888 C   0  0  0  0  0  0  0  0  0  0  0  0
  130.1699  128.8530  139.6571 N   0  0  0  0  0  0  0  0  0  0  0  0
  130.1809  130.1338  140.0906 C   0  0  0  0  0  0  0  0  0  0  0  0
  129.5990  131.2843  139.4279 C   0  0  0  0  0  0  0  0  0  0  0  0
  128.5982  132.0137  140.0035 C   0  0  0  0  0  0  0  0  0  0  0  0
  128.0342  133.0943  139.3754 C   0  0  0  0  0  0  0  0  0  0  0  0
  128.4961  133.4478  138.1323 C   0  0  0  0  0  0  0  0  0  0  0  0
  129.5084  132.6835  137.5888 C   0  0  0  0  0  0  0  0  0  0  0  0
  130.0621  131.6231  138.2031 N   0  0  0  0  0  0  0  0  0  0  0  0
  130.8315  130.1578  141.2623 N   0  0  0  0  0  0  0  0  0  0  0  0
  131.1909  128.9570  141.5193 O   0  0  0  0  0  0  0  0  0  0  0  0
  131.9771  126.3105  141.7594 C   0  0  0  0  0  0  0  0  0  0  0  0
  131.3514  125.1135  142.4317 C   0  0  0  0  0  0  0  0  0  0  0  0
  130.2621  124.6465  141.4617 C   0  0  0  0  0  0  0  0  0  0  0  0
  1  2  2  0
  2  3  1  0
  4  3  1  1
  4  5  1  0
  5  6  1  0
  6  7  1  6
  7  8  2  0
  8  9  1  0
  9 10  2  0
 10 11  1  0
 11 12  2  0
  2 13  1  0
 13 14  1  0
 15 14  1  1
 15 16  1  0
 16 17  1  1
 17 18  2  0
 18 19  1  0
 19 20  1  0
 20 21  2  0
 21 22  1  0
 22 23  2  0
 23 24  1  0
 24 25  2  0
 19 26  2  0
 26 27  1  0
 16 28  1  0
 28 29  1  0
 29 30  1  0
  6  4  1  0
 12  7  1  0
 30 15  1  0
 27 17  1  0
 25 20  1  0
M  END
>  <docking_score>  (2) 
-8.0579999999999998

$$$$

     RDKit          3D

 30 34  0  0  0  0  0  0  0  0999 V2000
  130.2457  134.0287  142.9185 O   0  0  0  0  0  0  0  0  0  0  0  0
  129.4479  133.5544  143.7562 C   0  0  0  0  0  0  0  0  0  0  0  0
  129.0151  134.4015  144.8163 N   0  0  0  0  0  0  0  0  0  0  0  0
  129.4669  135.7751  144.9394 C   0  0  2  0  0  0  0  0  0  0  0  0
  128.7187  136.4728  146.1235 C   0  0  0  0  0  0  0  0  0  0  0  0
  128.3256  136.8059  144.7294 C   0  0  1  0  0  0  0  0  0  0  0  0
  128.7061  138.1245  144.1785 C   0  0  0  0  0  0  0  0  0  0  0  0
  130.0465  138.3260  143.9010 C   0  0  0  0  0  0  0  0  0  0  0  0
  130.4653  139.5201  143.3889 C   0  0  0  0  0  0  0  0  0  0  0  0
  129.5794  140.5533  143.1333 C   0  0  0  0  0  0  0  0  0  0  0  0
  128.2507  140.3064  143.4261 C   0  0  0  0  0  0  0  0  0  0  0  0
  127.7876  139.1180  143.9429 C   0  0  0  0  0  0  0  0  0  0  0  0
  129.0434  132.2299  143.5872 N   0  0  0  0  0  0  0  0  0  0  0  0
  129.3718  131.2767  142.6162 C   0  0  0  0  0  0  0  0  0  0  0  0
  128.3140  130.5768  141.8657 C   0  0  1  0  0  0  0  0  0  0  0  0
  128.6488  130.6412  140.3624 C   0  0  1  0  0  0  0  0  0  0  0  0
  129.2018  131.9969  140.0688 C   0  0  0  0  0  0  0  0  0  0  0  0
  128.5408  133.1568  140.0664 N   0  0  0  0  0  0  0  0  0  0  0  0
  129.4555  134.1015  139.7512 C   0  0  0  0  0  0  0  0  0  0  0  0
  129.2292  135.5280  139.6266 C   0  0  0  0  0  0  0  0  0  0  0  0
  129.9150  136.4323  140.3862 C   0  0  0  0  0  0  0  0  0  0  0  0
  129.6951  137.7818  140.2827 C   0  0  0  0  0  0  0  0  0  0  0  0
  128.7577  138.2289  139.3856 C   0  0  0  0  0  0  0  0  0  0  0  0
  128.0890  137.2807  138.6386 C   0  0  0  0  0  0  0  0  0  0  0  0
  128.3029  135.9569  138.7392 N   0  0  0  0  0  0  0  0  0  0  0  0
  130.6309  133.4820  139.5737 N   0  0  0  0  0  0  0  0  0  0  0  0
  130.4334  132.2336  139.7722 O   0  0  0  0  0  0  0  0  0  0  0  0
  129.7394  129.5923  140.2233 C   0  0  0  0  0  0  0  0  0  0  0  0
  129.6550  128.7120  141.4458 C   0  0  0  0  0  0  0  0  0  0  0  0
  128.3341  129.1011  142.1161 C   0  0  0  0  0  0  0  0  0  0  0  0
  1  2  2  0
  2  3  1  0
  4  3  1  1
  4  5  1  0
  5  6  1  0
  6  7  1  6
  7  8  2  0
  8  9  1  0
  9 10  2  0
 10 11  1  0
 11 12  2  0
  2 13  1  0
 13 14  1  0
 15 14  1  1
 15 16  1  0
 16 17  1  1
 17 18  2  0
 18 19  1  0
 19 20  1  0
 20 21  2  0
 21 22  1  0
 22 23  2  0
 23 24  1  0
 24 25  2  0
 19 26  2  0
 26 27  1  0
 16 28  1  0
 28 29  1  0
 29 30  1  0
  6  4  1  0
 12  7  1  0
 30 15  1  0
 27 17  1  0
 25 20  1  0
M  END
>  <docking_score>  (3) 
-7.8840000000000003

$$$$
