
     RDKit          3D

 30 34  0  0  0  0  0  0  0  0999 V2000
  136.3379  118.1608  139.2109 O   0  0  0  0  0  0  0  0  0  0  0  0
  136.2623  119.0584  138.3562 C   0  0  0  0  0  0  0  0  0  0  0  0
  136.3508  120.4235  138.8144 N   0  0  0  0  0  0  0  0  0  0  0  0
  136.5198  120.7610  140.1933 C   0  0  2  0  0  0  0  0  0  0  0  0
  135.4258  120.6909  141.1780 C   0  0  0  0  0  0  0  0  0  0  0  0
  136.0443  122.0505  140.7500 C   0  0  2  0  0  0  0  0  0  0  0  0
  135.0955  122.8958  139.9762 C   0  0  0  0  0  0  0  0  0  0  0  0
  135.5363  123.9269  139.1679 C   0  0  0  0  0  0  0  0  0  0  0  0
  134.6567  124.6983  138.4623 C   0  0  0  0  0  0  0  0  0  0  0  0
  133.2902  124.4689  138.5360 C   0  0  0  0  0  0  0  0  0  0  0  0
  132.8673  123.4350  139.3482 C   0  0  0  0  0  0  0  0  0  0  0  0
  133.7462  122.6687  140.0497 C   0  0  0  0  0  0  0  0  0  0  0  0
  136.0994  118.7163  137.0184 N   0  0  0  0  0  0  0  0  0  0  0  0
  135.9799  117.4612  136.3841 C   0  0  0  0  0  0  0  0  0  0  0  0
  137.2380  116.8684  135.7997 C   0  0  2  0  0  0  0  0  0  0  0  0
  136.8485  115.6431  134.9822 C   0  0  2  0  0  0  0  0  0  0  0  0
  137.9398  114.7294  134.6613 C   0  0  0  0  0  0  0  0  0  0  0  0
  138.8346  114.2062  135.4012 N   0  0  0  0  0  0  0  0  0  0  0  0
  138.9515  114.4355  136.8158 C   0  0  0  0  0  0  0  0  0  0  0  0
  139.4705  113.3757  137.6612 C   0  0  0  0  0  0  0  0  0  0  0  0
  139.6968  113.5324  139.0102 C   0  0  0  0  0  0  0  0  0  0  0  0
  140.1968  112.4910  139.7908 C   0  0  0  0  0  0  0  0  0  0  0  0
  140.4631  111.2860  139.1784 C   0  0  0  0  0  0  0  0  0  0  0  0
  140.2315  111.1508  137.8394 C   0  0  0  0  0  0  0  0  0  0  0  0
  139.7448  112.1860  137.1114 N   0  0  0  0  0  0  0  0  0  0  0  0
  138.6446  115.5281  137.4745 N   0  0  0  0  0  0  0  0  0  0  0  0
  138.1491  116.6286  136.8205 O   0  0  0  0  0  0  0  0  0  0  0  0
  136.6034  116.6920  133.8646 C   0  0  0  0  0  0  0  0  0  0  0  0
  137.7421  117.4378  134.5322 C   0  0  0  0  0  0  0  0  0  0  0  0
  138.5989  118.1454  134.0664 O   0  0  0  0  0  0  0  0  0  0  0  0
  1  2  2  0
  2  3  1  0
  4  3  1  6
  4  5  1  0
  5  6  1  0
  6  7  1  6
  7  8  2  0
  8  9  1  0
  9 10  2  0
 10 11  1  0
 11 12  2  0
  2 13  1  0
 13 14  1  0
 15 14  1  1
 15 16  1  0
 16 17  1  0
 17 18  2  0
 18 19  1  0
 19 20  1  0
 20 21  2  0
 21 22  1  0
 22 23  2  0
 23 24  1  0
 24 25  2  0
 19 26  2  0
 26 27  1  0
 16 28  1  6
 28 29  1  0
 29 30  2  0
  6  4  1  0
 12  7  1  0
 27 15  1  0
 29 15  1  0
 25 20  1  0
M  END
>  <docking_score>  (1) 
-8.7100000000000009

$$$$

     RDKit          3D

 30 34  0  0  0  0  0  0  0  0999 V2000
  136.1602  122.3068  141.1424 O   0  0  0  0  0  0  0  0  0  0  0  0
  135.9282  122.2003  139.9272 C   0  0  0  0  0  0  0  0  0  0  0  0
  135.9592  120.8755  139.3568 N   0  0  0  0  0  0  0  0  0  0  0  0
  136.2426  119.7107  140.1359 C   0  0  2  0  0  0  0  0  0  0  0  0
  137.5812  119.0993  140.2101 C   0  0  0  0  0  0  0  0  0  0  0  0
  136.3955  118.3713  139.5185 C   0  0  2  0  0  0  0  0  0  0  0  0
  136.5796  118.2412  138.0479 C   0  0  0  0  0  0  0  0  0  0  0  0
  137.8084  118.4489  137.4497 C   0  0  0  0  0  0  0  0  0  0  0  0
  137.9666  118.3283  136.0981 C   0  0  0  0  0  0  0  0  0  0  0  0
  136.8953  117.9926  135.2827 C   0  0  0  0  0  0  0  0  0  0  0  0
  135.6752  117.7887  135.8968 C   0  0  0  0  0  0  0  0  0  0  0  0
  135.5210  117.9097  137.2434 C   0  0  0  0  0  0  0  0  0  0  0  0
  135.6526  123.3410  139.1814 N   0  0  0  0  0  0  0  0  0  0  0  0
  135.5904  124.7026  139.5474 C   0  0  0  0  0  0  0  0  0  0  0  0
  134.2968  125.1892  140.1520 C   0  0  2  0  0  0  0  0  0  0  0  0
  134.0149  126.5840  139.6075 C   0  0  2  0  0  0  0  0  0  0  0  0
  133.0306  127.3618  140.3524 C   0  0  0  0  0  0  0  0  0  0  0  0
  132.9282  127.6037  141.5986 N   0  0  0  0  0  0  0  0  0  0  0  0
  133.8409  127.1143  142.5961 C   0  0  0  0  0  0  0  0  0  0  0  0
  134.0877  127.9169  143.7801 C   0  0  0  0  0  0  0  0  0  0  0  0
  135.2323  128.6609  143.9593 C   0  0  0  0  0  0  0  0  0  0  0  0
  135.4348  129.4201  145.1110 C   0  0  0  0  0  0  0  0  0  0  0  0
  134.4545  129.4121  146.0789 C   0  0  0  0  0  0  0  0  0  0  0  0
  133.3266  128.6679  145.8820 C   0  0  0  0  0  0  0  0  0  0  0  0
  133.1638  127.9410  144.7491 N   0  0  0  0  0  0  0  0  0  0  0  0
  134.5056  125.9831  142.5823 N   0  0  0  0  0  0  0  0  0  0  0  0
  134.3766  125.1036  141.5362 O   0  0  0  0  0  0  0  0  0  0  0  0
  133.3821  125.7979  138.4282 C   0  0  0  0  0  0  0  0  0  0  0  0
  133.0356  124.7810  139.4980 C   0  0  0  0  0  0  0  0  0  0  0  0
  132.0888  124.0435  139.6049 O   0  0  0  0  0  0  0  0  0  0  0  0
  1  2  2  0
  2  3  1  0
  4  3  1  6
  4  5  1  0
  5  6  1  0
  6  7  1  6
  7  8  2  0
  8  9  1  0
  9 10  2  0
 10 11  1  0
 11 12  2  0
  2 13  1  0
 13 14  1  0
 15 14  1  6
 15 16  1  0
 16 17  1  0
 17 18  2  0
 18 19  1  0
 19 20  1  0
 20 21  2  0
 21 22  1  0
 22 23  2  0
 23 24  1  0
 24 25  2  0
 19 26  2  0
 26 27  1  0
 16 28  1  6
 28 29  1  0
 29 30  2  0
  6  4  1  0
 12  7  1  0
 27 15  1  0
 29 15  1  0
 25 20  1  0
M  END
>  <docking_score>  (2) 
-8.3480000000000008

$$$$

     RDKit          3D

 30 34  0  0  0  0  0  0  0  0999 V2000
  135.7104  123.9676  141.0461 O   0  0  0  0  0  0  0  0  0  0  0  0
  135.3493  123.4535  139.9750 C   0  0  0  0  0  0  0  0  0  0  0  0
  135.6425  122.0551  139.7752 N   0  0  0  0  0  0  0  0  0  0  0  0
  136.3209  121.2654  140.7551 C   0  0  2  0  0  0  0  0  0  0  0  0
  137.7454  120.9033  140.6501 C   0  0  0  0  0  0  0  0  0  0  0  0
  136.6266  119.8315  140.5335 C   0  0  2  0  0  0  0  0  0  0  0  0
  136.5296  119.2476  139.1685 C   0  0  0  0  0  0  0  0  0  0  0  0
  137.5262  119.4320  138.2284 C   0  0  0  0  0  0  0  0  0  0  0  0
  137.4269  118.8926  136.9771 C   0  0  0  0  0  0  0  0  0  0  0  0
  136.3194  118.1410  136.6113 C   0  0  0  0  0  0  0  0  0  0  0  0
  135.3335  117.9668  137.5626 C   0  0  0  0  0  0  0  0  0  0  0  0
  135.4355  118.5055  138.8080 C   0  0  0  0  0  0  0  0  0  0  0  0
  134.6893  124.2325  139.0312 N   0  0  0  0  0  0  0  0  0  0  0  0
  134.3287  125.5970  139.0350 C   0  0  0  0  0  0  0  0  0  0  0  0
  134.2701  126.2920  137.6974 C   0  0  2  0  0  0  0  0  0  0  0  0
  135.3211  127.3951  137.6907 C   0  0  2  0  0  0  0  0  0  0  0  0
  135.1622  128.4074  136.6520 C   0  0  0  0  0  0  0  0  0  0  0  0
  134.1461  129.0903  136.3011 N   0  0  0  0  0  0  0  0  0  0  0  0
  132.8492  128.9852  136.9130 C   0  0  0  0  0  0  0  0  0  0  0  0
  132.0006  130.1614  136.9729 C   0  0  0  0  0  0  0  0  0  0  0  0
  132.1629  131.2488  136.1442 C   0  0  0  0  0  0  0  0  0  0  0  0
  131.3280  132.3620  136.2311 C   0  0  0  0  0  0  0  0  0  0  0  0
  130.3237  132.3527  137.1741 C   0  0  0  0  0  0  0  0  0  0  0  0
  130.1793  131.2644  137.9863 C   0  0  0  0  0  0  0  0  0  0  0  0
  131.0105  130.1992  137.8736 N   0  0  0  0  0  0  0  0  0  0  0  0
  132.3015  127.9168  137.4425 N   0  0  0  0  0  0  0  0  0  0  0  0
  132.9696  126.7177  137.4582 O   0  0  0  0  0  0  0  0  0  0  0  0
  136.2657  126.2422  137.2573 C   0  0  0  0  0  0  0  0  0  0  0  0
  135.0267  125.6932  136.5775 C   0  0  0  0  0  0  0  0  0  0  0  0
  134.9030  125.0615  135.5591 O   0  0  0  0  0  0  0  0  0  0  0  0
  1  2  2  0
  2  3  1  0
  4  3  1  6
  4  5  1  0
  5  6  1  0
  6  7  1  6
  7  8  2  0
  8  9  1  0
  9 10  2  0
 10 11  1  0
 11 12  2  0
  2 13  1  0
 13 14  1  0
 15 14  1  1
 15 16  1  0
 16 17  1  0
 17 18  2  0
 18 19  1  0
 19 20  1  0
 20 21  2  0
 21 22  1  0
 22 23  2  0
 23 24  1  0
 24 25  2  0
 19 26  2  0
 26 27  1  0
 16 28  1  6
 28 29  1  0
 29 30  2  0
  6  4  1  0
 12  7  1  0
 27 15  1  0
 29 15  1  0
 25 20  1  0
M  END
>  <docking_score>  (3) 
-8.1799999999999997

$$$$
