
     RDKit          3D

 20 22  0  0  0  0  0  0  0  0999 V2000
  137.6804  118.9785  137.4980 O   0  0  0  0  0  0  0  0  0  0  0  0
  137.6270  117.9856  136.7081 C   0  0  0  0  0  0  0  0  0  0  0  0
  138.0831  116.7888  137.3399 N   0  0  0  0  0  0  0  0  0  0  0  0
  138.5443  115.5202  136.8884 C   0  0  0  0  0  0  0  0  0  0  0  0
  139.0071  114.8326  137.9920 C   0  0  0  0  0  0  0  0  0  0  0  0
  139.5290  113.5539  137.8985 C   0  0  0  0  0  0  0  0  0  0  0  0
  140.1153  112.6940  139.3261 Cl  0  0  0  0  0  0  0  0  0  0  0  0
  139.5748  112.9739  136.6473 C   0  0  0  0  0  0  0  0  0  0  0  0
  139.1102  113.6621  135.5340 C   0  0  0  0  0  0  0  0  0  0  0  0
  139.1471  113.1093  134.2979 F   0  0  0  0  0  0  0  0  0  0  0  0
  138.5911  114.9384  135.6385 C   0  0  0  0  0  0  0  0  0  0  0  0
  137.1390  118.2841  135.4111 N   0  0  0  0  0  0  0  0  0  0  0  0
  137.2980  117.7254  134.0963 C   0  0  0  0  0  0  0  0  0  0  0  0
  136.9048  118.6478  133.0072 C   0  0  0  0  0  0  0  0  0  0  0  0
  135.8045  117.9472  132.2376 C   0  0  0  0  0  0  0  0  0  0  0  0
  137.6756  116.4972  131.9061 S   0  0  2  0  0  0  0  0  0  0  0  0
  137.7164  116.5727  133.6357 C   0  0  0  0  0  0  0  0  0  0  0  0
  138.2011  115.3635  134.2990 C   0  0  0  0  0  0  0  0  0  0  0  0
  138.3222  114.4027  133.4950 O   0  0  0  0  0  0  0  0  0  0  0  0
  137.9992  116.7273  130.7475 F   0  0  0  0  0  0  0  0  0  0  0  0
  1  2  2  0
  2  3  1  0
  3  4  1  0
  4  5  2  0
  5  6  1  0
  6  7  1  0
  6  8  2  0
  8  9  1  0
  9 10  1  0
  9 11  2  0
  2 12  1  0
 12 13  1  0
 13 14  1  0
 14 15  1  0
 15 16  1  0
 16 17  1  0
 17 18  1  0
 18 19  2  0
 16 20  1  0
 11  4  1  0
 18 11  1  0
 13 17  2  0
M  END
>  <docking_score>  (1) 
-7.056

$$$$

     RDKit          3D

 20 22  0  0  0  0  0  0  0  0999 V2000
  129.5915  132.1656  143.8396 O   0  0  0  0  0  0  0  0  0  0  0  0
  129.3584  133.3490  143.4423 C   0  0  0  0  0  0  0  0  0  0  0  0
  128.9798  133.3740  142.0654 N   0  0  0  0  0  0  0  0  0  0  0  0
  128.9335  134.3681  141.0479 C   0  0  0  0  0  0  0  0  0  0  0  0
  128.6352  133.7302  139.8609 C   0  0  0  0  0  0  0  0  0  0  0  0
  128.5152  134.4166  138.6649 C   0  0  0  0  0  0  0  0  0  0  0  0
  128.1325  133.5774  137.1580 Cl  0  0  0  0  0  0  0  0  0  0  0  0
  128.7057  135.7831  138.6921 C   0  0  0  0  0  0  0  0  0  0  0  0
  129.0060  136.4292  139.8842 C   0  0  0  0  0  0  0  0  0  0  0  0
  129.1964  137.7695  139.9306 F   0  0  0  0  0  0  0  0  0  0  0  0
  129.1235  135.7342  141.0726 C   0  0  0  0  0  0  0  0  0  0  0  0
  129.5233  134.3510  144.4314 N   0  0  0  0  0  0  0  0  0  0  0  0
  129.8380  135.7534  144.4353 C   0  0  0  0  0  0  0  0  0  0  0  0
  130.2958  136.2560  145.7504 C   0  0  0  0  0  0  0  0  0  0  0  0
  129.3246  137.3487  146.1458 C   0  0  0  0  0  0  0  0  0  0  0  0
  130.3200  138.2313  144.1601 S   0  0  2  0  0  0  0  0  0  0  0  0
  129.8121  136.7002  143.5304 C   0  0  0  0  0  0  0  0  0  0  0  0
  129.4410  136.7022  142.1164 C   0  0  0  0  0  0  0  0  0  0  0  0
  129.3714  137.8693  141.6504 O   0  0  0  0  0  0  0  0  0  0  0  0
  131.0778  139.0913  144.5918 F   0  0  0  0  0  0  0  0  0  0  0  0
  1  2  2  0
  2  3  1  0
  3  4  1  0
  4  5  2  0
  5  6  1  0
  6  7  1  0
  6  8  2  0
  8  9  1  0
  9 10  1  0
  9 11  2  0
  2 12  1  0
 12 13  1  0
 13 14  1  0
 14 15  1  0
 15 16  1  0
 16 17  1  0
 17 18  1  0
 18 19  2  0
 16 20  1  0
 11  4  1  0
 18 11  1  0
 13 17  2  0
M  END
>  <docking_score>  (2) 
-6.8449999999999998

$$$$

     RDKit          3D

 20 22  0  0  0  0  0  0  0  0999 V2000
  136.6996  110.8413  162.8187 O   0  0  0  0  0  0  0  0  0  0  0  0
  137.6386  111.6874  162.6970 C   0  0  0  0  0  0  0  0  0  0  0  0
  138.7313  111.3854  163.5655 N   0  0  0  0  0  0  0  0  0  0  0  0
  139.8393  112.1116  164.0860 C   0  0  0  0  0  0  0  0  0  0  0  0
  140.4583  111.3064  165.0206 C   0  0  0  0  0  0  0  0  0  0  0  0
  141.5800  111.7170  165.7201 C   0  0  0  0  0  0  0  0  0  0  0  0
  142.3548  110.6678  166.9119 Cl  0  0  0  0  0  0  0  0  0  0  0  0
  142.0722  112.9780  165.4525 C   0  0  0  0  0  0  0  0  0  0  0  0
  141.4525  113.7917  164.5129 C   0  0  0  0  0  0  0  0  0  0  0  0
  141.9210  115.0323  164.2368 F   0  0  0  0  0  0  0  0  0  0  0  0
  140.3331  113.3720  163.8202 C   0  0  0  0  0  0  0  0  0  0  0  0
  137.3943  112.7138  161.7502 N   0  0  0  0  0  0  0  0  0  0  0  0
  137.8372  114.0680  161.5610 C   0  0  0  0  0  0  0  0  0  0  0  0
  136.9747  114.8533  160.6493 C   0  0  0  0  0  0  0  0  0  0  0  0
  137.8667  115.3100  159.5138 C   0  0  0  0  0  0  0  0  0  0  0  0
  138.8388  116.3964  161.4079 S   0  0  2  0  0  0  0  0  0  0  0  0
  138.8416  114.7751  162.0163 C   0  0  0  0  0  0  0  0  0  0  0  0
  139.9414  114.4541  162.9242 C   0  0  0  0  0  0  0  0  0  0  0  0
  140.8091  115.3654  162.9520 O   0  0  0  0  0  0  0  0  0  0  0  0
  138.4847  117.5606  161.2682 F   0  0  0  0  0  0  0  0  0  0  0  0
  1  2  2  0
  2  3  1  0
  3  4  1  0
  4  5  2  0
  5  6  1  0
  6  7  1  0
  6  8  2  0
  8  9  1  0
  9 10  1  0
  9 11  2  0
  2 12  1  0
 12 13  1  0
 13 14  1  0
 14 15  1  0
 15 16  1  0
 16 17  1  0
 17 18  1  0
 18 19  2  0
 16 20  1  0
 11  4  1  0
 18 11  1  0
 13 17  2  0
M  END
>  <docking_score>  (3) 
-6.0590000000000002

$$$$
