
     RDKit          3D

 27 30  0  0  0  0  0  0  0  0999 V2000
  136.1743  122.2284  139.8616 C   0  0  0  0  0  0  0  0  0  0  0  0
  137.5666  121.8433  140.3030 C   0  0  0  0  0  0  0  0  0  0  0  0
  137.2751  120.4026  140.7065 C   0  0  2  0  0  0  0  0  0  0  0  0
  138.4571  119.5336  140.8317 C   0  0  0  0  0  0  0  0  0  0  0  0
  136.2368  120.0164  139.7034 C   0  0  2  0  0  0  0  0  0  0  0  0
  136.7154  119.4965  138.4672 N   0  0  0  0  0  0  0  0  0  0  0  0
  136.7592  118.1388  138.1229 C   0  0  0  0  0  0  0  0  0  0  0  0
  136.3139  117.3526  139.0480 O   0  0  0  0  0  0  0  0  0  0  0  0
  137.2290  117.6052  136.9064 N   0  0  0  0  0  0  0  0  0  0  0  0
  137.1166  116.2085  136.5315 C   0  0  0  0  0  0  0  0  0  0  0  0
  136.2294  116.1552  135.3007 C   0  0  0  0  0  0  0  0  0  0  0  0
  136.8946  116.9481  134.1673 C   0  0  0  0  0  0  0  0  0  0  0  0
  138.0179  117.8048  134.6152 C   0  0  0  0  0  0  0  0  0  0  0  0
  137.8493  118.4848  135.9397 C   0  0  0  0  0  0  0  0  0  0  0  0
  137.4754  115.8925  133.2289 C   0  0  0  0  0  0  0  0  0  0  0  0
  137.2903  116.3559  131.8622 N   0  0  0  0  0  0  0  0  0  0  0  0
  137.9835  117.5211  131.3069 C   0  0  0  0  0  0  0  0  0  0  0  0
  137.7910  118.6511  132.2859 C   0  0  0  0  0  0  0  0  0  0  0  0
  136.2958  118.7828  132.5452 C   0  0  0  0  0  0  0  0  0  0  0  0
  135.7924  117.6985  133.4757 C   0  0  0  0  0  0  0  0  0  0  0  0
  136.4464  115.6753  131.0775 C   0  0  0  0  0  0  0  0  0  0  0  0
  136.1340  114.9415  130.1521 C   0  0  0  0  0  0  0  0  0  0  0  0
  134.7090  114.6042  129.9059 C   0  0  0  0  0  0  0  0  0  0  0  0
  133.7999  115.0789  129.0660 C   0  0  0  0  0  0  0  0  0  0  0  0
  132.6979  114.1712  129.5129 C   0  0  0  0  0  0  0  0  0  0  0  0
  133.7575  113.6370  130.4776 C   0  0  0  0  0  0  0  0  0  0  0  0
  135.4825  121.2173  139.5462 N   0  0  0  0  0  0  0  0  0  0  0  0
  1  2  1  0
  2  3  1  0
  3  4  1  6
  3  5  1  0
  5  6  1  6
  6  7  1  0
  7  8  2  0
  7  9  1  0
  9 10  1  0
 10 11  1  0
 11 12  1  0
 12 13  1  0
 13 14  1  0
 12 15  1  0
 15 16  1  0
 16 17  1  0
 17 18  1  0
 18 19  1  0
 19 20  1  0
 16 21  1  0
 21 22  2  3
 22 23  1  0
 23 24  2  0
 24 25  1  0
 25 26  1  0
  5 27  1  0
  1 27  2  0
 14  9  1  0
 20 12  1  0
 26 23  1  0
M  END
>  <docking_score>  (1) 
-8.2880000000000003

$$$$

     RDKit          3D

 27 30  0  0  0  0  0  0  0  0999 V2000
  122.9466  126.5348  144.1393 C   0  0  0  0  0  0  0  0  0  0  0  0
  123.2053  125.5040  145.2126 C   0  0  0  0  0  0  0  0  0  0  0  0
  123.3896  124.2911  144.3081 C   0  0  2  0  0  0  0  0  0  0  0  0
  124.0519  123.1348  144.9344 C   0  0  0  0  0  0  0  0  0  0  0  0
  124.0519  124.9051  143.1174 C   0  0  2  0  0  0  0  0  0  0  0  0
  125.4722  124.9965  143.1618 N   0  0  0  0  0  0  0  0  0  0  0  0
  126.2484  125.9013  142.4252 C   0  0  0  0  0  0  0  0  0  0  0  0
  125.5543  126.6854  141.6666 O   0  0  0  0  0  0  0  0  0  0  0  0
  127.6532  126.0069  142.4551 N   0  0  0  0  0  0  0  0  0  0  0  0
  128.5258  125.0795  143.1497 C   0  0  0  0  0  0  0  0  0  0  0  0
  129.3878  124.4133  142.0924 C   0  0  0  0  0  0  0  0  0  0  0  0
  130.2252  125.4837  141.3793 C   0  0  0  0  0  0  0  0  0  0  0  0
  129.7775  126.8708  141.6474 C   0  0  0  0  0  0  0  0  0  0  0  0
  128.2977  127.0865  141.7396 C   0  0  0  0  0  0  0  0  0  0  0  0
  131.6315  125.3412  141.9574 C   0  0  0  0  0  0  0  0  0  0  0  0
  132.5843  125.5522  140.8782 N   0  0  0  0  0  0  0  0  0  0  0  0
  132.7714  126.8432  140.2112 C   0  0  0  0  0  0  0  0  0  0  0  0
  131.4013  127.3349  139.8195 C   0  0  0  0  0  0  0  0  0  0  0  0
  130.7271  126.2254  139.0227 C   0  0  0  0  0  0  0  0  0  0  0  0
  130.2292  125.1139  139.9235 C   0  0  0  0  0  0  0  0  0  0  0  0
  133.3268  124.5109  140.4838 C   0  0  0  0  0  0  0  0  0  0  0  0
  134.2318  123.9545  139.8807 C   0  0  0  0  0  0  0  0  0  0  0  0
  134.4214  122.4860  139.9935 C   0  0  0  0  0  0  0  0  0  0  0  0
  135.4925  121.7066  139.9446 C   0  0  0  0  0  0  0  0  0  0  0  0
  134.7506  120.4234  140.1470 C   0  0  0  0  0  0  0  0  0  0  0  0
  133.5247  121.3363  140.1978 C   0  0  0  0  0  0  0  0  0  0  0  0
  123.4161  126.1788  143.0198 N   0  0  0  0  0  0  0  0  0  0  0  0
  1  2  1  0
  2  3  1  0
  3  4  1  1
  3  5  1  0
  5  6  1  1
  6  7  1  0
  7  8  2  0
  7  9  1  0
  9 10  1  0
 10 11  1  0
 11 12  1  0
 12 13  1  0
 13 14  1  0
 12 15  1  0
 15 16  1  0
 16 17  1  0
 17 18  1  0
 18 19  1  0
 19 20  1  0
 16 21  1  0
 21 22  2  3
 22 23  1  0
 23 24  2  0
 24 25  1  0
 25 26  1  0
  5 27  1  0
  1 27  2  0
 14  9  1  0
 20 12  1  0
 26 23  1  0
M  END
>  <docking_score>  (2) 
-7.7249999999999996

$$$$

     RDKit          3D

 27 30  0  0  0  0  0  0  0  0999 V2000
  122.3787  125.7840  142.6338 C   0  0  0  0  0  0  0  0  0  0  0  0
  122.6765  126.4124  143.9746 C   0  0  0  0  0  0  0  0  0  0  0  0
  123.5950  125.3267  144.5233 C   0  0  2  0  0  0  0  0  0  0  0  0
  124.4300  125.7290  145.6674 C   0  0  0  0  0  0  0  0  0  0  0  0
  124.2947  124.8733  143.2830 C   0  0  2  0  0  0  0  0  0  0  0  0
  125.4734  125.5879  142.9257 N   0  0  0  0  0  0  0  0  0  0  0  0
  126.7795  125.0868  143.0070 C   0  0  0  0  0  0  0  0  0  0  0  0
  126.8450  123.8734  143.4493 O   0  0  0  0  0  0  0  0  0  0  0  0
  127.9573  125.7775  142.6590 N   0  0  0  0  0  0  0  0  0  0  0  0
  129.2968  125.2639  142.8724 C   0  0  0  0  0  0  0  0  0  0  0  0
  129.9279  125.1024  141.5011 C   0  0  0  0  0  0  0  0  0  0  0  0
  129.9977  126.4739  140.8156 C   0  0  0  0  0  0  0  0  0  0  0  0
  129.1791  127.5166  141.4781 C   0  0  0  0  0  0  0  0  0  0  0  0
  127.8569  127.0754  142.0278 C   0  0  0  0  0  0  0  0  0  0  0  0
  131.4588  126.9035  140.9299 C   0  0  0  0  0  0  0  0  0  0  0  0
  131.8279  127.5738  139.6923 N   0  0  0  0  0  0  0  0  0  0  0  0
  131.2709  128.8644  139.2794 C   0  0  0  0  0  0  0  0  0  0  0  0
  129.7726  128.7524  139.4011 C   0  0  0  0  0  0  0  0  0  0  0  0
  129.3403  127.5195  138.6179 C   0  0  0  0  0  0  0  0  0  0  0  0
  129.6423  126.2424  139.3746 C   0  0  0  0  0  0  0  0  0  0  0  0
  132.7255  126.9772  138.8990 C   0  0  0  0  0  0  0  0  0  0  0  0
  133.2419  126.0383  138.3121 C   0  0  0  0  0  0  0  0  0  0  0  0
  134.4429  126.2483  137.4644 C   0  0  0  0  0  0  0  0  0  0  0  0
  134.8037  127.2144  136.6316 C   0  0  0  0  0  0  0  0  0  0  0  0
  136.1131  126.5994  136.2505 C   0  0  0  0  0  0  0  0  0  0  0  0
  135.6806  125.4918  137.2123 C   0  0  0  0  0  0  0  0  0  0  0  0
  123.2724  124.9567  142.2912 N   0  0  0  0  0  0  0  0  0  0  0  0
  1  2  1  0
  2  3  1  0
  3  4  1  1
  3  5  1  0
  5  6  1  6
  6  7  1  0
  7  8  2  0
  7  9  1  0
  9 10  1  0
 10 11  1  0
 11 12  1  0
 12 13  1  0
 13 14  1  0
 12 15  1  0
 15 16  1  0
 16 17  1  0
 17 18  1  0
 18 19  1  0
 19 20  1  0
 16 21  1  0
 21 22  2  3
 22 23  1  0
 23 24  2  0
 24 25  1  0
 25 26  1  0
  5 27  1  0
  1 27  2  0
 14  9  1  0
 20 12  1  0
 26 23  1  0
M  END
>  <docking_score>  (3) 
-7.476

$$$$
