
     RDKit          3D

 20 22  0  0  0  0  0  0  0  0999 V2000
  120.3775  121.3516  143.9452 O   0  0  0  0  0  0  0  0  0  0  0  0
  120.5781  122.4005  143.2680 C   0  0  0  0  0  0  0  0  0  0  0  0
  121.7286  123.1483  143.7198 N   0  0  0  0  0  0  0  0  0  0  0  0
  122.6076  124.0836  143.0974 C   0  0  0  0  0  0  0  0  0  0  0  0
  123.7060  124.2459  143.9100 C   0  0  0  0  0  0  0  0  0  0  0  0
  124.7402  125.1160  143.5412 C   0  0  0  0  0  0  0  0  0  0  0  0
  126.1270  125.3014  144.5979 Cl  0  0  0  0  0  0  0  0  0  0  0  0
  124.6367  125.8057  142.3503 C   0  0  0  0  0  0  0  0  0  0  0  0
  123.5185  125.6307  141.5385 C   0  0  0  0  0  0  0  0  0  0  0  0
  123.3365  126.4806  140.0182 Cl  0  0  0  0  0  0  0  0  0  0  0  0
  122.5030  124.7724  141.9069 C   0  0  0  0  0  0  0  0  0  0  0  0
  119.5920  122.5266  142.2494 N   0  0  0  0  0  0  0  0  0  0  0  0
  119.3754  123.4825  141.2011 C   0  0  0  0  0  0  0  0  0  0  0  0
  118.0303  123.4292  140.6346 C   0  0  0  0  0  0  0  0  0  0  0  0
  117.8411  124.4023  139.5823 C   0  0  0  0  0  0  0  0  0  0  0  0
  119.2245  125.2040  139.4231 S   0  0  0  0  0  0  0  0  0  0  0  0
  120.1528  124.3755  140.6720 C   0  0  0  0  0  0  0  0  0  0  0  0
  121.5193  124.8473  140.8314 C   0  0  0  0  0  0  0  0  0  0  0  0
  121.9876  125.4622  139.8352 O   0  0  0  0  0  0  0  0  0  0  0  0
  118.8953  127.1674  140.0576 Cl  0  0  0  0  0  0  0  0  0  0  0  0
  1  2  2  0
  2  3  1  0
  3  4  1  0
  4  5  2  0
  5  6  1  0
  6  7  1  0
  6  8  2  0
  8  9  1  0
  9 10  1  0
  9 11  2  0
  2 12  1  0
 12 13  1  0
 13 14  1  0
 14 15  1  0
 15 16  2  0
 16 17  1  0
 17 18  1  0
 18 19  2  0
 16 20  1  1
 11  4  1  0
 18 11  1  0
 13 17  2  0
M  END
>  <docking_score>  (1) 
-7.2240000000000002

$$$$

     RDKit          3D

 20 22  0  0  0  0  0  0  0  0999 V2000
  123.5600  126.9184  141.7607 O   0  0  0  0  0  0  0  0  0  0  0  0
  122.6365  126.0595  141.8530 C   0  0  0  0  0  0  0  0  0  0  0  0
  121.3932  126.5079  141.2695 N   0  0  0  0  0  0  0  0  0  0  0  0
  120.2529  125.8381  140.7347 C   0  0  0  0  0  0  0  0  0  0  0  0
  119.5002  126.7591  140.0430 C   0  0  0  0  0  0  0  0  0  0  0  0
  118.3125  126.3731  139.4083 C   0  0  0  0  0  0  0  0  0  0  0  0
  117.3751  127.5699  138.5346 Cl  0  0  0  0  0  0  0  0  0  0  0  0
  117.9126  125.0548  139.4897 C   0  0  0  0  0  0  0  0  0  0  0  0
  118.6854  124.1342  140.1936 C   0  0  0  0  0  0  0  0  0  0  0  0
  118.2245  122.4501  140.3285 Cl  0  0  0  0  0  0  0  0  0  0  0  0
  119.8543  124.5202  140.8168 C   0  0  0  0  0  0  0  0  0  0  0  0
  123.1119  124.8927  142.5151 N   0  0  0  0  0  0  0  0  0  0  0  0
  122.5102  123.6313  142.8415 C   0  0  0  0  0  0  0  0  0  0  0  0
  123.2465  122.8811  143.8555 C   0  0  0  0  0  0  0  0  0  0  0  0
  122.6179  121.6164  144.1641 C   0  0  0  0  0  0  0  0  0  0  0  0
  121.3029  121.5041  143.2476 S   0  0  0  0  0  0  0  0  0  0  0  0
  121.4409  123.0444  142.4012 C   0  0  0  0  0  0  0  0  0  0  0  0
  120.3813  123.3110  141.4414 C   0  0  0  0  0  0  0  0  0  0  0  0
  119.7602  122.2898  141.0398 O   0  0  0  0  0  0  0  0  0  0  0  0
  119.6407  121.6065  144.5094 Cl  0  0  0  0  0  0  0  0  0  0  0  0
  1  2  2  0
  2  3  1  0
  3  4  1  0
  4  5  2  0
  5  6  1  0
  6  7  1  0
  6  8  2  0
  8  9  1  0
  9 10  1  0
  9 11  2  0
  2 12  1  0
 12 13  1  0
 13 14  1  0
 14 15  1  0
 15 16  2  0
 16 17  1  0
 17 18  1  0
 18 19  2  0
 16 20  1  1
 11  4  1  0
 18 11  1  0
 13 17  2  0
M  END
>  <docking_score>  (2) 
-7.173

$$$$
