
     RDKit          3D

 29 33  0  0  0  0  0  0  0  0999 V2000
  134.1679  123.8493  139.3895 O   0  0  0  0  0  0  0  0  0  0  0  0
  133.4769  123.0243  140.0095 C   0  0  0  0  0  0  0  0  0  0  0  0
  134.0148  121.7144  140.1747 N   0  0  0  0  0  0  0  0  0  0  0  0
  135.3047  121.3369  139.6529 C   0  0  1  0  0  0  0  0  0  0  0  0
  136.4618  121.0228  140.4898 C   0  0  0  0  0  0  0  0  0  0  0  0
  135.7304  119.8649  139.9600 C   0  0  2  0  0  0  0  0  0  0  0  0
  136.1904  119.0921  138.7819 C   0  0  0  0  0  0  0  0  0  0  0  0
  137.4959  119.2486  138.3612 C   0  0  0  0  0  0  0  0  0  0  0  0
  137.9621  118.5355  137.2569 C   0  0  0  0  0  0  0  0  0  0  0  0
  137.1321  117.6682  136.5702 C   0  0  0  0  0  0  0  0  0  0  0  0
  135.8290  117.5085  136.9862 C   0  0  0  0  0  0  0  0  0  0  0  0
  135.3861  118.2217  138.0801 C   0  0  0  0  0  0  0  0  0  0  0  0
  132.2209  123.4173  140.5075 N   0  0  0  0  0  0  0  0  0  0  0  0
  131.6805  124.7540  140.3327 C   0  0  2  0  0  0  0  0  0  0  0  0
  131.8276  125.4726  141.6558 C   0  0  0  0  0  0  0  0  0  0  0  0
  130.5576  125.2458  142.4354 C   0  0  1  0  0  0  0  0  0  0  0  0
  129.7683  126.5113  142.5664 C   0  0  0  0  0  0  0  0  0  0  0  0
  130.2917  127.7563  142.6585 N   0  0  0  0  0  0  0  0  0  0  0  0
  129.2854  128.6562  142.7651 C   0  0  0  0  0  0  0  0  0  0  0  0
  129.3876  130.1029  142.8880 C   0  0  0  0  0  0  0  0  0  0  0  0
  129.9234  130.8245  141.8488 C   0  0  0  0  0  0  0  0  0  0  0  0
  130.0534  132.1794  141.8845 C   0  0  0  0  0  0  0  0  0  0  0  0
  129.6307  132.8530  143.0085 C   0  0  0  0  0  0  0  0  0  0  0  0
  129.0936  132.1058  144.0451 C   0  0  0  0  0  0  0  0  0  0  0  0
  128.9787  130.7643  143.9777 N   0  0  0  0  0  0  0  0  0  0  0  0
  128.1560  127.9195  142.7339 N   0  0  0  0  0  0  0  0  0  0  0  0
  128.4811  126.6625  142.6160 O   0  0  0  0  0  0  0  0  0  0  0  0
  129.7084  124.3258  141.5855 C   0  0  0  0  0  0  0  0  0  0  0  0
  130.1786  124.6306  140.1558 C   0  0  0  0  0  0  0  0  0  0  0  0
  1  2  2  0
  2  3  1  0
  4  3  1  1
  4  5  1  0
  5  6  1  0
  6  7  1  6
  7  8  2  0
  8  9  1  0
  9 10  2  0
 10 11  1  0
 11 12  2  0
  2 13  1  0
 14 13  1  1
 14 15  1  0
 15 16  1  0
 16 17  1  6
 17 18  2  0
 18 19  1  0
 19 20  1  0
 20 21  2  0
 21 22  1  0
 22 23  2  0
 23 24  1  0
 24 25  2  0
 19 26  2  0
 26 27  1  0
 16 28  1  0
 28 29  1  0
  6  4  1  0
 12  7  1  0
 29 14  1  0
 27 17  1  0
 25 20  1  0
M  END
>  <docking_score>  (1) 
-8.6539999999999999

$$$$

     RDKit          3D

 29 33  0  0  0  0  0  0  0  0999 V2000
  134.1778  123.7723  139.0692 O   0  0  0  0  0  0  0  0  0  0  0  0
  133.5374  122.9987  139.7999 C   0  0  0  0  0  0  0  0  0  0  0  0
  134.1389  121.7436  140.1088 N   0  0  0  0  0  0  0  0  0  0  0  0
  135.4355  121.3633  139.6061 C   0  0  1  0  0  0  0  0  0  0  0  0
  136.5971  121.1102  140.4574 C   0  0  0  0  0  0  0  0  0  0  0  0
  135.8861  119.9155  139.9848 C   0  0  2  0  0  0  0  0  0  0  0  0
  136.3603  119.0941  138.8458 C   0  0  0  0  0  0  0  0  0  0  0  0
  136.1826  119.5793  137.5657 C   0  0  0  0  0  0  0  0  0  0  0  0
  136.6185  118.8328  136.4711 C   0  0  0  0  0  0  0  0  0  0  0  0
  137.2296  117.6047  136.6477 C   0  0  0  0  0  0  0  0  0  0  0  0
  137.4094  117.1166  137.9228 C   0  0  0  0  0  0  0  0  0  0  0  0
  136.9722  117.8689  138.9926 C   0  0  0  0  0  0  0  0  0  0  0  0
  132.2734  123.3931  140.2763 N   0  0  0  0  0  0  0  0  0  0  0  0
  131.6680  124.6735  139.9546 C   0  0  2  0  0  0  0  0  0  0  0  0
  131.8992  125.5875  141.1378 C   0  0  0  0  0  0  0  0  0  0  0  0
  130.7102  125.4482  142.0540 C   0  0  1  0  0  0  0  0  0  0  0  0
  129.8859  126.6979  142.0665 C   0  0  0  0  0  0  0  0  0  0  0  0
  130.0461  127.7516  141.2319 N   0  0  0  0  0  0  0  0  0  0  0  0
  129.1279  128.7010  141.5314 C   0  0  0  0  0  0  0  0  0  0  0  0
  128.9369  129.9946  140.8923 C   0  0  0  0  0  0  0  0  0  0  0  0
  127.9850  130.8509  141.3907 C   0  0  0  0  0  0  0  0  0  0  0  0
  127.7450  132.0778  140.8514 C   0  0  0  0  0  0  0  0  0  0  0  0
  128.4867  132.4758  139.7618 C   0  0  0  0  0  0  0  0  0  0  0  0
  129.4414  131.5967  139.2749 C   0  0  0  0  0  0  0  0  0  0  0  0
  129.6544  130.3881  139.8328 N   0  0  0  0  0  0  0  0  0  0  0  0
  128.4209  128.1884  142.5594 N   0  0  0  0  0  0  0  0  0  0  0  0
  128.8964  127.0087  142.8454 O   0  0  0  0  0  0  0  0  0  0  0  0
  129.8284  124.3885  141.4300 C   0  0  0  0  0  0  0  0  0  0  0  0
  130.1625  124.4857  139.9344 C   0  0  0  0  0  0  0  0  0  0  0  0
  1  2  2  0
  2  3  1  0
  4  3  1  1
  4  5  1  0
  5  6  1  0
  6  7  1  6
  7  8  2  0
  8  9  1  0
  9 10  2  0
 10 11  1  0
 11 12  2  0
  2 13  1  0
 14 13  1  1
 14 15  1  0
 15 16  1  0
 16 17  1  6
 17 18  2  0
 18 19  1  0
 19 20  1  0
 20 21  2  0
 21 22  1  0
 22 23  2  0
 23 24  1  0
 24 25  2  0
 19 26  2  0
 26 27  1  0
 16 28  1  0
 28 29  1  0
  6  4  1  0
 12  7  1  0
 29 14  1  0
 27 17  1  0
 25 20  1  0
M  END
>  <docking_score>  (2) 
-8.3379999999999992

$$$$

     RDKit          3D

 29 33  0  0  0  0  0  0  0  0999 V2000
  134.3780  125.5236  140.1847 O   0  0  0  0  0  0  0  0  0  0  0  0
  134.6080  125.3854  138.9720 C   0  0  0  0  0  0  0  0  0  0  0  0
  135.2803  124.1957  138.5659 N   0  0  0  0  0  0  0  0  0  0  0  0
  135.6877  123.1795  139.5040 C   0  0  1  0  0  0  0  0  0  0  0  0
  134.7590  122.4363  140.3543 C   0  0  0  0  0  0  0  0  0  0  0  0
  135.2153  121.7328  139.1488 C   0  0  2  0  0  0  0  0  0  0  0  0
  136.2844  120.7065  139.1716 C   0  0  0  0  0  0  0  0  0  0  0  0
  137.0588  120.5881  140.3083 C   0  0  0  0  0  0  0  0  0  0  0  0
  138.0725  119.6317  140.3640 C   0  0  0  0  0  0  0  0  0  0  0  0
  138.3177  118.7941  139.2912 C   0  0  0  0  0  0  0  0  0  0  0  0
  137.5477  118.9082  138.1551 C   0  0  0  0  0  0  0  0  0  0  0  0
  136.5500  119.8593  138.1186 C   0  0  0  0  0  0  0  0  0  0  0  0
  134.2013  126.3925  138.0772 N   0  0  0  0  0  0  0  0  0  0  0  0
  133.5183  127.6021  138.5007 C   0  0  2  0  0  0  0  0  0  0  0  0
  132.5443  127.9733  137.4042 C   0  0  0  0  0  0  0  0  0  0  0  0
  133.2593  128.9100  136.4643 C   0  0  1  0  0  0  0  0  0  0  0  0
  132.6991  130.2958  136.5494 C   0  0  0  0  0  0  0  0  0  0  0  0
  131.5681  130.6456  137.2059 N   0  0  0  0  0  0  0  0  0  0  0  0
  131.3675  131.9780  137.0696 C   0  0  0  0  0  0  0  0  0  0  0  0
  130.2781  132.7789  137.6082 C   0  0  0  0  0  0  0  0  0  0  0  0
  129.7193  132.4220  138.8115 C   0  0  0  0  0  0  0  0  0  0  0  0
  128.6983  133.1180  139.3834 C   0  0  0  0  0  0  0  0  0  0  0  0
  128.2062  134.2245  138.7282 C   0  0  0  0  0  0  0  0  0  0  0  0
  128.7842  134.5668  137.5157 C   0  0  0  0  0  0  0  0  0  0  0  0
  129.7948  133.8558  136.9767 N   0  0  0  0  0  0  0  0  0  0  0  0
  132.4023  132.4101  136.3200 N   0  0  0  0  0  0  0  0  0  0  0  0
  133.1640  131.3914  136.0339 O   0  0  0  0  0  0  0  0  0  0  0  0
  134.6771  129.0146  136.9828 C   0  0  0  0  0  0  0  0  0  0  0  0
  134.5258  128.7365  138.4853 C   0  0  0  0  0  0  0  0  0  0  0  0
  1  2  2  0
  2  3  1  0
  4  3  1  6
  4  5  1  0
  5  6  1  0
  6  7  1  1
  7  8  2  0
  8  9  1  0
  9 10  2  0
 10 11  1  0
 11 12  2  0
  2 13  1  0
 14 13  1  6
 14 15  1  0
 15 16  1  0
 16 17  1  1
 17 18  2  0
 18 19  1  0
 19 20  1  0
 20 21  2  0
 21 22  1  0
 22 23  2  0
 23 24  1  0
 24 25  2  0
 19 26  2  0
 26 27  1  0
 16 28  1  0
 28 29  1  0
  6  4  1  0
 12  7  1  0
 29 14  1  0
 27 17  1  0
 25 20  1  0
M  END
>  <docking_score>  (3) 
-7.7329999999999997

$$$$
