
     RDKit          3D

 11 11  0  0  0  0  0  0  0  0999 V2000
  137.6959  119.2702  140.6051 O   0  0  0  0  0  0  0  0  0  0  0  0
  136.4744  119.3843  140.2613 C   0  0  0  0  0  0  0  0  0  0  0  0
  135.7453  120.5836  140.4907 N   0  0  0  0  0  0  0  0  0  0  0  0
  134.3210  120.5071  140.3250 C   0  0  0  0  0  0  0  0  0  0  0  0
  133.4495  121.5217  140.1653 C   0  0  0  0  0  0  0  0  0  0  0  0
  133.8303  122.9349  140.1325 C   0  0  0  0  0  0  0  0  0  0  0  0
  132.8565  123.8273  140.2958 C   0  0  0  0  0  0  0  0  0  0  0  0
  131.6044  123.3493  140.4770 F   0  0  0  0  0  0  0  0  0  0  0  0
  136.5493  121.6985  140.8566 C   0  0  0  0  0  0  0  0  0  0  0  0
  136.2496  122.9786  140.2447 C   0  0  0  0  0  0  0  0  0  0  0  0
  135.1191  123.4910  139.9445 N   0  0  0  0  0  0  0  0  0  0  0  0
  1  2  2  0
  2  3  1  0
  3  4  1  0
  4  5  2  0
  5  6  1  0
  6  7  2  3
  7  8  1  0
  3  9  1  0
  9 10  1  0
 10 11  2  0
 11  6  1  0
M  END
>  <docking_score>  (1) 
-4.3609999999999998

$$$$
