
     RDKit          3D

 27 30  0  0  0  0  0  0  0  0999 V2000
  135.1683  117.7023  139.1270 O   0  0  0  0  0  0  0  0  0  0  0  0
  135.6866  118.6323  138.4188 C   0  0  0  0  0  0  0  0  0  0  0  0
  135.6095  119.9290  138.9583 N   0  0  0  0  0  0  0  0  0  0  0  0
  135.0092  120.2719  140.2052 C   0  0  1  0  0  0  0  0  0  0  0  0
  135.9623  121.1381  141.0949 C   0  0  0  0  0  0  0  0  0  0  0  0
  134.6578  121.6228  140.6370 C   0  0  1  0  0  0  0  0  0  0  0  0
  134.4809  122.7746  139.7581 C   0  0  0  0  0  0  0  0  0  0  0  0
  133.2643  123.3717  139.4638 C   0  0  0  0  0  0  0  0  0  0  0  0
  133.1532  124.4624  138.6234 C   0  0  0  0  0  0  0  0  0  0  0  0
  134.2991  124.9993  138.0375 C   0  0  0  0  0  0  0  0  0  0  0  0
  135.5071  124.4246  138.3154 C   0  0  0  0  0  0  0  0  0  0  0  0
  135.5968  123.3361  139.1572 C   0  0  0  0  0  0  0  0  0  0  0  0
  136.3073  118.3500  137.1453 N   0  0  0  0  0  0  0  0  0  0  0  0
  137.7513  118.2343  137.1384 C   0  0  0  0  0  0  0  0  0  0  0  0
  138.2111  116.9644  137.8231 C   0  0  0  0  0  0  0  0  0  0  0  0
  138.0920  115.8794  136.7408 C   0  0  0  0  0  0  0  0  0  0  0  0
  138.6313  116.4873  135.5023 C   0  0  0  0  0  0  0  0  0  0  0  0
  137.9056  116.8227  134.5336 N   0  0  0  0  0  0  0  0  0  0  0  0
  136.5247  116.7435  134.3299 C   0  0  0  0  0  0  0  0  0  0  0  0
  136.0094  115.8847  133.2275 C   0  0  0  0  0  0  0  0  0  0  0  0
  135.4677  114.6381  133.5077 C   0  0  0  0  0  0  0  0  0  0  0  0
  134.9748  113.8273  132.5128 C   0  0  0  0  0  0  0  0  0  0  0  0
  135.0265  114.2732  131.2204 C   0  0  0  0  0  0  0  0  0  0  0  0
  135.5627  115.5053  130.9479 C   0  0  0  0  0  0  0  0  0  0  0  0
  136.0250  116.2485  131.9490 N   0  0  0  0  0  0  0  0  0  0  0  0
  135.6534  117.3569  134.9911 N   0  0  0  0  0  0  0  0  0  0  0  0
  135.6315  118.2022  135.9940 O   0  0  0  0  0  0  0  0  0  0  0  0
  1  2  2  0
  2  3  1  0
  4  3  1  6
  4  5  1  0
  5  6  1  0
  6  7  1  6
  7  8  2  0
  8  9  1  0
  9 10  2  0
 10 11  1  0
 11 12  2  0
  2 13  1  0
 13 14  1  0
 14 15  1  0
 15 16  1  0
 16 17  1  0
 17 18  2  3
 18 19  1  0
 19 20  1  0
 20 21  2  0
 21 22  1  0
 22 23  2  0
 23 24  1  0
 24 25  2  0
 19 26  2  3
 26 27  1  0
  6  4  1  0
 12  7  1  0
 27 13  1  0
 25 20  1  0
M  END
>  <docking_score>  (1) 
-8.3729999999999993

$$$$

     RDKit          3D

 27 30  0  0  0  0  0  0  0  0999 V2000
  121.4810  126.4807  142.0766 O   0  0  0  0  0  0  0  0  0  0  0  0
  122.5363  125.7984  141.8404 C   0  0  0  0  0  0  0  0  0  0  0  0
  122.4081  124.7866  140.8716 N   0  0  0  0  0  0  0  0  0  0  0  0
  121.2162  124.4747  140.1539 C   0  0  1  0  0  0  0  0  0  0  0  0
  121.2770  123.0490  139.5105 C   0  0  0  0  0  0  0  0  0  0  0  0
  120.2649  123.4218  140.5019 C   0  0  1  0  0  0  0  0  0  0  0  0
  120.1395  122.7918  141.8126 C   0  0  0  0  0  0  0  0  0  0  0  0
  119.0085  122.8397  142.6137 C   0  0  0  0  0  0  0  0  0  0  0  0
  118.9433  122.2243  143.8488 C   0  0  0  0  0  0  0  0  0  0  0  0
  120.0490  121.5218  144.3269 C   0  0  0  0  0  0  0  0  0  0  0  0
  121.1727  121.4634  143.5518 C   0  0  0  0  0  0  0  0  0  0  0  0
  121.2177  122.0845  142.3215 C   0  0  0  0  0  0  0  0  0  0  0  0
  123.7742  126.0634  142.5361 N   0  0  0  0  0  0  0  0  0  0  0  0
  123.8139  125.7218  143.9434 C   0  0  0  0  0  0  0  0  0  0  0  0
  123.8337  124.2221  144.1516 C   0  0  0  0  0  0  0  0  0  0  0  0
  125.3110  123.8307  143.9873 C   0  0  0  0  0  0  0  0  0  0  0  0
  126.0826  124.8580  144.7243 C   0  0  0  0  0  0  0  0  0  0  0  0
  126.7733  125.7362  144.1505 N   0  0  0  0  0  0  0  0  0  0  0  0
  127.0118  126.0009  142.7986 C   0  0  0  0  0  0  0  0  0  0  0  0
  128.4019  125.8810  142.2775 C   0  0  0  0  0  0  0  0  0  0  0  0
  129.0666  124.6640  142.3335 C   0  0  0  0  0  0  0  0  0  0  0  0
  130.3460  124.5199  141.8513 C   0  0  0  0  0  0  0  0  0  0  0  0
  130.9662  125.6109  141.3064 C   0  0  0  0  0  0  0  0  0  0  0  0
  130.3059  126.8114  141.2533 C   0  0  0  0  0  0  0  0  0  0  0  0
  129.0690  126.8945  141.7344 N   0  0  0  0  0  0  0  0  0  0  0  0
  126.1487  126.3580  141.9618 N   0  0  0  0  0  0  0  0  0  0  0  0
  124.8604  126.6056  141.9615 O   0  0  0  0  0  0  0  0  0  0  0  0
  1  2  2  0
  2  3  1  0
  4  3  1  1
  4  5  1  0
  5  6  1  0
  6  7  1  1
  7  8  2  0
  8  9  1  0
  9 10  2  0
 10 11  1  0
 11 12  2  0
  2 13  1  0
 13 14  1  0
 14 15  1  0
 15 16  1  0
 16 17  1  0
 17 18  2  3
 18 19  1  0
 19 20  1  0
 20 21  2  0
 21 22  1  0
 22 23  2  0
 23 24  1  0
 24 25  2  0
 19 26  2  3
 26 27  1  0
  6  4  1  0
 12  7  1  0
 27 13  1  0
 25 20  1  0
M  END
>  <docking_score>  (2) 
-7.9820000000000002

$$$$

     RDKit          3D

 27 30  0  0  0  0  0  0  0  0999 V2000
  131.3145  133.6951  135.5431 O   0  0  0  0  0  0  0  0  0  0  0  0
  131.7053  133.3026  136.6955 C   0  0  0  0  0  0  0  0  0  0  0  0
  130.7098  133.2232  137.6862 N   0  0  0  0  0  0  0  0  0  0  0  0
  129.3324  133.5421  137.5024 C   0  0  1  0  0  0  0  0  0  0  0  0
  128.5146  133.3894  138.8282 C   0  0  0  0  0  0  0  0  0  0  0  0
  128.6301  134.6656  138.1182 C   0  0  1  0  0  0  0  0  0  0  0  0
  129.2622  135.8550  138.6806 C   0  0  0  0  0  0  0  0  0  0  0  0
  128.6187  137.0594  138.9224 C   0  0  0  0  0  0  0  0  0  0  0  0
  129.2660  138.1562  139.4575 C   0  0  0  0  0  0  0  0  0  0  0  0
  130.6213  138.0686  139.7740 C   0  0  0  0  0  0  0  0  0  0  0  0
  131.2727  136.8900  139.5429 C   0  0  0  0  0  0  0  0  0  0  0  0
  130.6084  135.8065  139.0080 C   0  0  0  0  0  0  0  0  0  0  0  0
  133.0878  132.9672  136.9464 N   0  0  0  0  0  0  0  0  0  0  0  0
  133.3371  131.7249  137.6488 C   0  0  0  0  0  0  0  0  0  0  0  0
  133.0388  130.5232  136.7770 C   0  0  0  0  0  0  0  0  0  0  0  0
  134.3107  130.3339  135.9350 C   0  0  0  0  0  0  0  0  0  0  0  0
  135.4431  130.5143  136.8726 C   0  0  0  0  0  0  0  0  0  0  0  0
  136.1892  131.5245  136.8569 N   0  0  0  0  0  0  0  0  0  0  0  0
  136.1965  132.6675  136.0518 C   0  0  0  0  0  0  0  0  0  0  0  0
  137.3765  132.9246  135.1801 C   0  0  0  0  0  0  0  0  0  0  0  0
  138.6250  133.1501  135.7428 C   0  0  0  0  0  0  0  0  0  0  0  0
  139.7345  133.3800  134.9641 C   0  0  0  0  0  0  0  0  0  0  0  0
  139.5891  133.3841  133.6036 C   0  0  0  0  0  0  0  0  0  0  0  0
  138.3538  133.1611  133.0520 C   0  0  0  0  0  0  0  0  0  0  0  0
  137.3144  132.9438  133.8524 N   0  0  0  0  0  0  0  0  0  0  0  0
  135.2895  133.5322  136.0042 N   0  0  0  0  0  0  0  0  0  0  0  0
  134.1277  133.7337  136.5792 O   0  0  0  0  0  0  0  0  0  0  0  0
  1  2  2  0
  2  3  1  0
  4  3  1  1
  4  5  1  0
  5  6  1  0
  6  7  1  1
  7  8  2  0
  8  9  1  0
  9 10  2  0
 10 11  1  0
 11 12  2  0
  2 13  1  0
 13 14  1  0
 14 15  1  0
 15 16  1  0
 16 17  1  0
 17 18  2  3
 18 19  1  0
 19 20  1  0
 20 21  2  0
 21 22  1  0
 22 23  2  0
 23 24  1  0
 24 25  2  0
 19 26  2  3
 26 27  1  0
  6  4  1  0
 12  7  1  0
 27 13  1  0
 25 20  1  0
M  END
>  <docking_score>  (3) 
-7.71

$$$$
