
     RDKit          3D

 21 23  0  0  0  0  0  0  0  0999 V2000
  136.1961  118.4912  132.5163 O   0  0  0  0  0  0  0  0  0  0  0  0
  136.7641  117.9110  133.4696 C   0  0  0  0  0  0  0  0  0  0  0  0
  137.4939  116.7808  132.9977 N   0  0  0  0  0  0  0  0  0  0  0  0
  138.3074  115.7957  133.6116 C   0  0  0  0  0  0  0  0  0  0  0  0
  138.9094  115.0622  132.5943 C   0  0  0  0  0  0  0  0  0  0  0  0
  139.7625  114.0280  132.8835 C   0  0  0  0  0  0  0  0  0  0  0  0
  140.5264  113.0973  131.5930 Cl  0  0  0  0  0  0  0  0  0  0  0  0
  140.0613  113.6695  134.1793 C   0  0  0  0  0  0  0  0  0  0  0  0
  139.4802  114.3778  135.1984 C   0  0  0  0  0  0  0  0  0  0  0  0
  139.7191  114.0920  136.5045 F   0  0  0  0  0  0  0  0  0  0  0  0
  138.6231  115.4168  134.9003 C   0  0  0  0  0  0  0  0  0  0  0  0
  136.5410  118.5159  134.7581 N   0  0  0  0  0  0  0  0  0  0  0  0
  136.7966  118.1292  136.0986 C   0  0  0  0  0  0  0  0  0  0  0  0
  136.2341  119.0303  137.1506 C   0  0  0  0  0  0  0  0  0  0  0  0
  137.1766  118.7267  138.3250 C   0  0  2  0  0  0  0  0  0  0  0  0
  137.3780  117.2385  138.1411 C   0  0  0  0  0  0  0  0  0  0  0  0
  137.4404  117.1253  136.6630 C   0  0  0  0  0  0  0  0  0  0  0  0
  138.1866  115.9504  136.1902 C   0  0  0  0  0  0  0  0  0  0  0  0
  138.5664  115.1752  137.1177 O   0  0  0  0  0  0  0  0  0  0  0  0
  136.5081  119.0321  139.6408 C   0  0  0  0  0  0  0  0  0  0  0  0
  135.1644  118.8721  139.4836 F   0  0  0  0  0  0  0  0  0  0  0  0
  1  2  2  0
  2  3  1  0
  3  4  1  0
  4  5  2  0
  5  6  1  0
  6  7  1  0
  6  8  2  0
  8  9  1  0
  9 10  1  0
  9 11  2  0
  2 12  1  0
 12 13  1  0
 13 14  1  0
 14 15  1  0
 15 16  1  0
 16 17  1  0
 17 18  1  0
 18 19  2  0
 15 20  1  1
 20 21  1  0
 11  4  1  0
 18 11  1  0
 13 17  2  0
M  END
>  <docking_score>  (1) 
-7.3799999999999999

$$$$

     RDKit          3D

 21 23  0  0  0  0  0  0  0  0999 V2000
  127.8746  133.7468  137.2856 O   0  0  0  0  0  0  0  0  0  0  0  0
  128.8657  134.4182  137.6530 C   0  0  0  0  0  0  0  0  0  0  0  0
  130.0741  133.7285  137.3420 N   0  0  0  0  0  0  0  0  0  0  0  0
  131.4525  134.0106  137.5146 C   0  0  0  0  0  0  0  0  0  0  0  0
  132.1649  133.0349  136.8250 C   0  0  0  0  0  0  0  0  0  0  0  0
  133.5363  133.0453  136.8090 C   0  0  0  0  0  0  0  0  0  0  0  0
  134.4405  131.8074  135.9343 Cl  0  0  0  0  0  0  0  0  0  0  0  0
  134.2661  134.0104  137.4668 C   0  0  0  0  0  0  0  0  0  0  0  0
  133.5860  134.9823  138.1530 C   0  0  0  0  0  0  0  0  0  0  0  0
  134.2259  135.9714  138.8290 F   0  0  0  0  0  0  0  0  0  0  0  0
  132.2066  134.9658  138.1649 C   0  0  0  0  0  0  0  0  0  0  0  0
  128.5401  135.6759  138.2760 N   0  0  0  0  0  0  0  0  0  0  0  0
  129.2746  136.6487  139.0015 C   0  0  0  0  0  0  0  0  0  0  0  0
  128.4656  137.7480  139.6116 C   0  0  0  0  0  0  0  0  0  0  0  0
  129.5215  138.8588  139.7174 C   0  0  2  0  0  0  0  0  0  0  0  0
  130.7408  138.0470  140.0959 C   0  0  0  0  0  0  0  0  0  0  0  0
  130.5530  136.8248  139.2759 C   0  0  0  0  0  0  0  0  0  0  0  0
  131.8054  136.1178  138.9716 C   0  0  0  0  0  0  0  0  0  0  0  0
  132.8247  136.6095  139.5414 O   0  0  0  0  0  0  0  0  0  0  0  0
  129.1579  139.8415  140.8007 C   0  0  0  0  0  0  0  0  0  0  0  0
  127.8001  139.8782  140.9049 F   0  0  0  0  0  0  0  0  0  0  0  0
  1  2  2  0
  2  3  1  0
  3  4  1  0
  4  5  2  0
  5  6  1  0
  6  7  1  0
  6  8  2  0
  8  9  1  0
  9 10  1  0
  9 11  2  0
  2 12  1  0
 12 13  1  0
 13 14  1  0
 14 15  1  0
 15 16  1  0
 16 17  1  0
 17 18  1  0
 18 19  2  0
 15 20  1  1
 20 21  1  0
 11  4  1  0
 18 11  1  0
 13 17  2  0
M  END
>  <docking_score>  (2) 
-7.1829999999999998

$$$$

     RDKit          3D

 21 23  0  0  0  0  0  0  0  0999 V2000
  142.3379  133.3769  143.1444 O   0  0  0  0  0  0  0  0  0  0  0  0
  142.3719  133.8335  141.9789 C   0  0  0  0  0  0  0  0  0  0  0  0
  143.2502  134.9545  141.9114 N   0  0  0  0  0  0  0  0  0  0  0  0
  143.6684  135.8289  140.8772 C   0  0  0  0  0  0  0  0  0  0  0  0
  144.6984  136.6122  141.3876 C   0  0  0  0  0  0  0  0  0  0  0  0
  145.3106  137.5621  140.6104 C   0  0  0  0  0  0  0  0  0  0  0  0
  146.6175  138.5561  141.2579 Cl  0  0  0  0  0  0  0  0  0  0  0  0
  144.9401  137.7841  139.3027 C   0  0  0  0  0  0  0  0  0  0  0  0
  143.9276  137.0244  138.7778 C   0  0  0  0  0  0  0  0  0  0  0  0
  143.4990  137.1769  137.4980 F   0  0  0  0  0  0  0  0  0  0  0  0
  143.3162  136.0708  139.5651 C   0  0  0  0  0  0  0  0  0  0  0  0
  141.5405  133.1304  141.0352 N   0  0  0  0  0  0  0  0  0  0  0  0
  141.1108  133.3791  139.7065 C   0  0  0  0  0  0  0  0  0  0  0  0
  140.0966  132.4235  139.1649 C   0  0  0  0  0  0  0  0  0  0  0  0
  140.3461  132.5624  137.6555 C   0  0  2  0  0  0  0  0  0  0  0  0
  140.6261  134.0459  137.5563 C   0  0  0  0  0  0  0  0  0  0  0  0
  141.4055  134.2870  138.7957 C   0  0  0  0  0  0  0  0  0  0  0  0
  142.2989  135.4516  138.7162 C   0  0  0  0  0  0  0  0  0  0  0  0
  142.1833  136.1158  137.6434 O   0  0  0  0  0  0  0  0  0  0  0  0
  139.1161  132.1820  136.8723 C   0  0  0  0  0  0  0  0  0  0  0  0
  139.4837  131.2967  135.9043 F   0  0  0  0  0  0  0  0  0  0  0  0
  1  2  2  0
  2  3  1  0
  3  4  1  0
  4  5  2  0
  5  6  1  0
  6  7  1  0
  6  8  2  0
  8  9  1  0
  9 10  1  0
  9 11  2  0
  2 12  1  0
 12 13  1  0
 13 14  1  0
 14 15  1  0
 15 16  1  0
 16 17  1  0
 17 18  1  0
 18 19  2  0
 15 20  1  6
 20 21  1  0
 11  4  1  0
 18 11  1  0
 13 17  2  0
M  END
>  <docking_score>  (3) 
-7.0960000000000001

$$$$
