
     RDKit          3D

 20 22  0  0  0  0  0  0  0  0999 V2000
  122.2381  128.2590  140.1311 O   0  0  0  0  0  0  0  0  0  0  0  0
  121.8093  127.0934  140.4310 C   0  0  0  0  0  0  0  0  0  0  0  0
  122.5841  126.4743  141.4581 N   0  0  0  0  0  0  0  0  0  0  0  0
  122.5590  125.2108  142.1266 C   0  0  0  0  0  0  0  0  0  0  0  0
  123.6848  125.1942  142.9500 C   0  0  0  0  0  0  0  0  0  0  0  0
  123.9200  124.0764  143.7276 C   0  0  0  0  0  0  0  0  0  0  0  0
  125.3253  124.0495  144.7588 Cl  0  0  0  0  0  0  0  0  0  0  0  0
  123.0512  122.9866  143.6914 C   0  0  0  0  0  0  0  0  0  0  0  0
  121.9387  123.0372  142.8591 C   0  0  0  0  0  0  0  0  0  0  0  0
  120.7975  121.7116  142.7541 Cl  0  0  0  0  0  0  0  0  0  0  0  0
  121.6881  124.1446  142.0761 C   0  0  0  0  0  0  0  0  0  0  0  0
  120.6705  126.7007  139.6711 N   0  0  0  0  0  0  0  0  0  0  0  0
  119.6232  125.7236  139.8247 C   0  0  0  0  0  0  0  0  0  0  0  0
  118.3792  126.0493  139.0849 C   0  0  0  0  0  0  0  0  0  0  0  0
  118.2816  124.9219  138.0662 C   0  0  0  0  0  0  0  0  0  0  0  0
  117.9663  123.8538  140.2685 S   0  0  2  0  0  0  0  0  0  0  0  0
  119.5264  124.6005  140.4797 C   0  0  0  0  0  0  0  0  0  0  0  0
  120.4622  123.8530  141.3478 C   0  0  0  0  0  0  0  0  0  0  0  0
  120.0666  122.6502  141.4697 O   0  0  0  0  0  0  0  0  0  0  0  0
  118.3372  122.0696  139.1174 Cl  0  0  0  0  0  0  0  0  0  0  0  0
  1  2  2  0
  2  3  1  0
  3  4  1  0
  4  5  2  0
  5  6  1  0
  6  7  1  0
  6  8  2  0
  8  9  1  0
  9 10  1  0
  9 11  2  0
  2 12  1  0
 12 13  1  0
 13 14  1  0
 14 15  1  0
 15 16  1  0
 16 17  1  0
 17 18  1  0
 18 19  2  0
 16 20  1  6
 11  4  1  0
 18 11  1  0
 13 17  2  0
M  END
>  <docking_score>  (1) 
-7.5250000000000004

$$$$

     RDKit          3D

 20 22  0  0  0  0  0  0  0  0999 V2000
  129.3528  139.8454  139.8813 O   0  0  0  0  0  0  0  0  0  0  0  0
  129.3217  138.7677  140.5670 C   0  0  0  0  0  0  0  0  0  0  0  0
  129.1285  137.6094  139.7548 N   0  0  0  0  0  0  0  0  0  0  0  0
  128.9954  136.2075  140.0012 C   0  0  0  0  0  0  0  0  0  0  0  0
  128.7010  135.6308  138.7657 C   0  0  0  0  0  0  0  0  0  0  0  0
  128.5164  134.2629  138.7005 C   0  0  0  0  0  0  0  0  0  0  0  0
  128.1483  133.5361  137.1594 Cl  0  0  0  0  0  0  0  0  0  0  0  0
  128.6218  133.4736  139.8450 C   0  0  0  0  0  0  0  0  0  0  0  0
  128.9165  134.0818  141.0600 C   0  0  0  0  0  0  0  0  0  0  0  0
  129.0667  133.1635  142.5449 Cl  0  0  0  0  0  0  0  0  0  0  0  0
  129.1040  135.4456  141.1439 C   0  0  0  0  0  0  0  0  0  0  0  0
  129.4863  138.9858  141.9647 N   0  0  0  0  0  0  0  0  0  0  0  0
  129.8741  138.1742  143.0900 C   0  0  0  0  0  0  0  0  0  0  0  0
  130.4315  138.9454  144.2281 C   0  0  0  0  0  0  0  0  0  0  0  0
  129.4146  138.7045  145.3355 C   0  0  0  0  0  0  0  0  0  0  0  0
  130.4662  136.5122  144.9135 S   0  0  2  0  0  0  0  0  0  0  0  0
  129.8425  136.8935  143.3318 C   0  0  0  0  0  0  0  0  0  0  0  0
  129.3904  135.7269  142.5428 C   0  0  0  0  0  0  0  0  0  0  0  0
  129.2158  134.7296  143.3129 O   0  0  0  0  0  0  0  0  0  0  0  0
  128.7682  135.8200  146.0463 Cl  0  0  0  0  0  0  0  0  0  0  0  0
  1  2  2  0
  2  3  1  0
  3  4  1  0
  4  5  2  0
  5  6  1  0
  6  7  1  0
  6  8  2  0
  8  9  1  0
  9 10  1  0
  9 11  2  0
  2 12  1  0
 12 13  1  0
 13 14  1  0
 14 15  1  0
 15 16  1  0
 16 17  1  0
 17 18  1  0
 18 19  2  0
 16 20  1  1
 11  4  1  0
 18 11  1  0
 13 17  2  0
M  END
>  <docking_score>  (2) 
-7.0949999999999998

$$$$
