
     RDKit          3D

 27 30  0  0  0  0  0  0  0  0999 V2000
  130.5305  135.9620  142.9331 O   0  0  0  0  0  0  0  0  0  0  0  0
  131.7194  136.0418  143.3323 C   0  0  0  0  0  0  0  0  0  0  0  0
  132.0159  136.5700  144.6417 N   0  0  0  0  0  0  0  0  0  0  0  0
  130.8697  136.9860  145.4299 C   0  0  1  0  0  0  0  0  0  0  0  0
  131.0368  138.2352  146.2994 C   0  0  0  0  0  0  0  0  0  0  0  0
  130.2524  138.2610  145.0461 C   0  0  2  0  0  0  0  0  0  0  0  0
  128.7854  138.4632  145.0696 C   0  0  0  0  0  0  0  0  0  0  0  0
  128.0000  137.4012  145.4740 C   0  0  0  0  0  0  0  0  0  0  0  0
  126.6305  137.4575  145.5403 C   0  0  0  0  0  0  0  0  0  0  0  0
  126.0009  138.6270  145.1877 C   0  0  0  0  0  0  0  0  0  0  0  0
  126.7689  139.6983  144.7812 C   0  0  0  0  0  0  0  0  0  0  0  0
  128.1587  139.6280  144.7184 C   0  0  0  0  0  0  0  0  0  0  0  0
  132.7417  135.5988  142.4580 N   0  0  0  0  0  0  0  0  0  0  0  0
  132.3622  135.0810  141.1589 C   0  0  0  0  0  0  0  0  0  0  0  0
  132.9615  136.0010  140.1132 C   0  0  0  0  0  0  0  0  0  0  0  0
  131.9664  136.0916  138.9743 C   0  0  0  0  0  0  0  0  0  0  0  0
  130.8336  136.9244  139.4575 C   0  0  0  0  0  0  0  0  0  0  0  0
  130.9872  138.1052  140.0824 N   0  0  0  0  0  0  0  0  0  0  0  0
  129.7575  138.5947  140.3857 C   0  0  0  0  0  0  0  0  0  0  0  0
  129.4647  139.8433  141.0621 C   0  0  0  0  0  0  0  0  0  0  0  0
  130.4258  140.5642  141.7158 C   0  0  0  0  0  0  0  0  0  0  0  0
  130.1157  141.7481  142.3497 C   0  0  0  0  0  0  0  0  0  0  0  0
  128.8169  142.2196  142.3283 C   0  0  0  0  0  0  0  0  0  0  0  0
  127.8538  141.5047  141.6776 C   0  0  0  0  0  0  0  0  0  0  0  0
  128.1720  140.3208  141.0457 C   0  0  0  0  0  0  0  0  0  0  0  0
  128.8955  137.6968  139.9360 N   0  0  0  0  0  0  0  0  0  0  0  0
  129.5492  136.7236  139.3942 O   0  0  0  0  0  0  0  0  0  0  0  0
  1  2  2  0
  2  3  1  0
  4  3  1  6
  4  5  1  0
  5  6  1  0
  6  7  1  1
  7  8  2  0
  8  9  1  0
  9 10  2  0
 10 11  1  0
 11 12  2  0
  2 13  1  0
 13 14  1  0
 14 15  1  0
 15 16  1  0
 16 17  1  0
 17 18  2  0
 18 19  1  0
 19 20  1  0
 20 21  2  0
 21 22  1  0
 22 23  2  0
 23 24  1  0
 24 25  2  0
 19 26  2  0
 26 27  1  0
  6  4  1  0
 12  7  1  0
 27 17  1  0
 25 20  1  0
M  END
>  <docking_score>  (1) 
-6.8840000000000003

$$$$

     RDKit          3D

 27 30  0  0  0  0  0  0  0  0999 V2000
  131.8887  123.8288  139.3769 O   0  0  0  0  0  0  0  0  0  0  0  0
  132.4243  124.3638  140.3800 C   0  0  0  0  0  0  0  0  0  0  0  0
  133.8106  124.1108  140.6892 N   0  0  0  0  0  0  0  0  0  0  0  0
  134.5088  123.2203  139.7796 C   0  0  1  0  0  0  0  0  0  0  0  0
  135.7090  123.7962  139.0229 C   0  0  0  0  0  0  0  0  0  0  0  0
  135.8813  122.8615  140.1559 C   0  0  2  0  0  0  0  0  0  0  0  0
  136.4244  121.5000  139.9444 C   0  0  0  0  0  0  0  0  0  0  0  0
  135.7375  120.6638  139.0858 C   0  0  0  0  0  0  0  0  0  0  0  0
  136.1339  119.3806  138.8041 C   0  0  0  0  0  0  0  0  0  0  0  0
  137.2715  118.8955  139.4030 C   0  0  0  0  0  0  0  0  0  0  0  0
  137.9708  119.7162  140.2634 C   0  0  0  0  0  0  0  0  0  0  0  0
  137.5575  121.0172  140.5410 C   0  0  0  0  0  0  0  0  0  0  0  0
  131.6241  125.2128  141.1830 N   0  0  0  0  0  0  0  0  0  0  0  0
  130.2399  125.4162  140.8055 C   0  0  0  0  0  0  0  0  0  0  0  0
  130.0383  126.9068  140.6143 C   0  0  0  0  0  0  0  0  0  0  0  0
  129.4278  127.4430  141.8931 C   0  0  0  0  0  0  0  0  0  0  0  0
  129.0029  128.8402  141.6147 C   0  0  0  0  0  0  0  0  0  0  0  0
  129.3181  129.5073  140.4904 N   0  0  0  0  0  0  0  0  0  0  0  0
  128.7744  130.7496  140.5604 C   0  0  0  0  0  0  0  0  0  0  0  0
  128.8702  131.7949  139.5602 C   0  0  0  0  0  0  0  0  0  0  0  0
  128.1450  132.9518  139.6394 C   0  0  0  0  0  0  0  0  0  0  0  0
  128.2581  133.9272  138.6721 C   0  0  0  0  0  0  0  0  0  0  0  0
  129.1149  133.7401  137.6042 C   0  0  0  0  0  0  0  0  0  0  0  0
  129.8411  132.5879  137.5199 C   0  0  0  0  0  0  0  0  0  0  0  0
  129.7223  131.6164  138.4919 C   0  0  0  0  0  0  0  0  0  0  0  0
  128.1462  130.7987  141.7242 N   0  0  0  0  0  0  0  0  0  0  0  0
  128.2933  129.6662  142.3274 O   0  0  0  0  0  0  0  0  0  0  0  0
  1  2  2  0
  2  3  1  0
  4  3  1  1
  4  5  1  0
  5  6  1  0
  6  7  1  6
  7  8  2  0
  8  9  1  0
  9 10  2  0
 10 11  1  0
 11 12  2  0
  2 13  1  0
 13 14  1  0
 14 15  1  0
 15 16  1  0
 16 17  1  0
 17 18  2  0
 18 19  1  0
 19 20  1  0
 20 21  2  0
 21 22  1  0
 22 23  2  0
 23 24  1  0
 24 25  2  0
 19 26  2  0
 26 27  1  0
  6  4  1  0
 12  7  1  0
 27 17  1  0
 25 20  1  0
M  END
>  <docking_score>  (2) 
-6.3639999999999999

$$$$

     RDKit          3D

 27 30  0  0  0  0  0  0  0  0999 V2000
  134.7138  124.9678  138.5430 O   0  0  0  0  0  0  0  0  0  0  0  0
  133.7726  124.3116  139.0557 C   0  0  0  0  0  0  0  0  0  0  0  0
  133.9994  122.9762  139.5522 N   0  0  0  0  0  0  0  0  0  0  0  0
  135.3543  122.4726  139.4154 C   0  0  1  0  0  0  0  0  0  0  0  0
  136.2070  122.4090  140.6856 C   0  0  0  0  0  0  0  0  0  0  0  0
  135.6348  121.1908  140.0729 C   0  0  2  0  0  0  0  0  0  0  0  0
  136.5082  120.1655  139.4571 C   0  0  0  0  0  0  0  0  0  0  0  0
  136.1588  119.6956  138.2060 C   0  0  0  0  0  0  0  0  0  0  0  0
  136.8818  118.7473  137.5269 C   0  0  0  0  0  0  0  0  0  0  0  0
  138.0127  118.2341  138.1152 C   0  0  0  0  0  0  0  0  0  0  0  0
  138.3774  118.6914  139.3645 C   0  0  0  0  0  0  0  0  0  0  0  0
  137.6345  119.6546  140.0433 C   0  0  0  0  0  0  0  0  0  0  0  0
  132.4987  124.9267  139.1255 N   0  0  0  0  0  0  0  0  0  0  0  0
  132.3522  126.2710  138.6048 C   0  0  0  0  0  0  0  0  0  0  0  0
  130.9610  126.7488  138.9727 C   0  0  0  0  0  0  0  0  0  0  0  0
  131.1262  127.9755  139.8466 C   0  0  0  0  0  0  0  0  0  0  0  0
  130.9036  129.1587  138.9743 C   0  0  0  0  0  0  0  0  0  0  0  0
  130.3072  130.2907  139.3881 N   0  0  0  0  0  0  0  0  0  0  0  0
  130.2662  131.1611  138.3467 C   0  0  0  0  0  0  0  0  0  0  0  0
  129.7083  132.4992  138.3573 C   0  0  0  0  0  0  0  0  0  0  0  0
  130.0636  133.4326  139.2917 C   0  0  0  0  0  0  0  0  0  0  0  0
  129.5150  134.6969  139.2753 C   0  0  0  0  0  0  0  0  0  0  0  0
  128.5921  135.0332  138.3032 C   0  0  0  0  0  0  0  0  0  0  0  0
  128.2338  134.1061  137.3683 C   0  0  0  0  0  0  0  0  0  0  0  0
  128.7872  132.8429  137.3914 C   0  0  0  0  0  0  0  0  0  0  0  0
  130.8387  130.5312  137.3331 N   0  0  0  0  0  0  0  0  0  0  0  0
  131.2058  129.3563  137.7239 O   0  0  0  0  0  0  0  0  0  0  0  0
  1  2  2  0
  2  3  1  0
  4  3  1  1
  4  5  1  0
  5  6  1  0
  6  7  1  6
  7  8  2  0
  8  9  1  0
  9 10  2  0
 10 11  1  0
 11 12  2  0
  2 13  1  0
 13 14  1  0
 14 15  1  0
 15 16  1  0
 16 17  1  0
 17 18  2  0
 18 19  1  0
 19 20  1  0
 20 21  2  0
 21 22  1  0
 22 23  2  0
 23 24  1  0
 24 25  2  0
 19 26  2  0
 26 27  1  0
  6  4  1  0
 12  7  1  0
 27 17  1  0
 25 20  1  0
M  END
>  <docking_score>  (3) 
-6.0140000000000002

$$$$
