
     RDKit          3D

 11 11  0  0  0  0  0  0  0  0999 V2000
  132.9908  124.5575  140.7211 O   0  0  0  0  0  0  0  0  0  0  0  0
  133.0309  123.6569  139.8529 C   0  0  0  0  0  0  0  0  0  0  0  0
  133.9376  122.5507  139.9527 N   0  0  0  0  0  0  0  0  0  0  0  0
  135.3311  122.7314  139.7257 C   0  0  0  0  0  0  0  0  0  0  0  0
  136.1992  121.7370  139.8083 C   0  0  0  0  0  0  0  0  0  0  0  0
  135.7172  120.4020  140.1442 C   0  0  0  0  0  0  0  0  0  0  0  0
  136.5484  119.3665  140.2400 C   0  0  0  0  0  0  0  0  0  0  0  0
  137.9987  119.4948  140.0159 C   0  0  0  0  0  0  0  0  0  0  0  0
  138.7041  119.2612  141.1996 F   0  0  0  0  0  0  0  0  0  0  0  0
  133.4824  121.2465  140.2787 C   0  0  0  0  0  0  0  0  0  0  0  0
  134.3233  120.2676  140.3619 N   0  0  0  0  0  0  0  0  0  0  0  0
  1  2  2  0
  2  3  1  0
  3  4  1  0
  4  5  2  0
  5  6  1  0
  6  7  2  3
  7  8  1  0
  8  9  1  0
  3 10  1  0
 10 11  2  0
 11  6  1  0
M  END
>  <docking_score>  (1) 
-4.4429999999999996

$$$$

     RDKit          3D

 11 11  0  0  0  0  0  0  0  0999 V2000
  136.9863  122.7269  140.6284 O   0  0  0  0  0  0  0  0  0  0  0  0
  137.2507  121.5270  140.8669 C   0  0  0  0  0  0  0  0  0  0  0  0
  137.1281  120.5118  139.8619 N   0  0  0  0  0  0  0  0  0  0  0  0
  138.1848  119.5864  139.6319 C   0  0  0  0  0  0  0  0  0  0  0  0
  138.1102  118.6362  138.7150 C   0  0  0  0  0  0  0  0  0  0  0  0
  136.9022  118.5268  137.9050 C   0  0  0  0  0  0  0  0  0  0  0  0
  136.7755  117.5890  136.9687 C   0  0  0  0  0  0  0  0  0  0  0  0
  137.8357  116.6056  136.6877 C   0  0  0  0  0  0  0  0  0  0  0  0
  138.6518  117.0443  135.6412 F   0  0  0  0  0  0  0  0  0  0  0  0
  135.9585  120.3939  139.0665 C   0  0  0  0  0  0  0  0  0  0  0  0
  135.8758  119.4683  138.1674 N   0  0  0  0  0  0  0  0  0  0  0  0
  1  2  2  0
  2  3  1  0
  3  4  1  0
  4  5  2  0
  5  6  1  0
  6  7  2  3
  7  8  1  0
  8  9  1  0
  3 10  1  0
 10 11  2  0
 11  6  1  0
M  END
>  <docking_score>  (2) 
-4.4160000000000004

$$$$

     RDKit          3D

 11 11  0  0  0  0  0  0  0  0999 V2000
  126.3670  124.1623  144.1359 O   0  0  0  0  0  0  0  0  0  0  0  0
  125.4184  124.8425  144.5874 C   0  0  0  0  0  0  0  0  0  0  0  0
  124.4296  125.4248  143.7278 N   0  0  0  0  0  0  0  0  0  0  0  0
  124.7690  125.8446  142.4108 C   0  0  0  0  0  0  0  0  0  0  0  0
  123.8863  126.3857  141.5878 C   0  0  0  0  0  0  0  0  0  0  0  0
  122.5110  126.5620  142.0406 C   0  0  0  0  0  0  0  0  0  0  0  0
  121.5834  127.1012  141.2526 C   0  0  0  0  0  0  0  0  0  0  0  0
  121.8775  127.5532  139.8817 C   0  0  0  0  0  0  0  0  0  0  0  0
  120.7351  128.0915  139.2831 F   0  0  0  0  0  0  0  0  0  0  0  0
  123.0879  125.6023  144.1553 C   0  0  0  0  0  0  0  0  0  0  0  0
  122.2173  126.1304  143.3582 N   0  0  0  0  0  0  0  0  0  0  0  0
  1  2  2  0
  2  3  1  0
  3  4  1  0
  4  5  2  0
  5  6  1  0
  6  7  2  3
  7  8  1  0
  8  9  1  0
  3 10  1  0
 10 11  2  0
 11  6  1  0
M  END
>  <docking_score>  (3) 
-4.3719999999999999

$$$$
