
     RDKit          3D

 20 22  0  0  0  0  0  0  0  0999 V2000
  136.0183  118.3978  131.9282 O   0  0  0  0  0  0  0  0  0  0  0  0
  136.6925  117.7478  132.7499 C   0  0  0  0  0  0  0  0  0  0  0  0
  136.6833  118.3628  134.0520 N   0  0  0  0  0  0  0  0  0  0  0  0
  137.0214  117.8995  135.3628 C   0  0  0  0  0  0  0  0  0  0  0  0
  136.5161  118.8289  136.2394 C   0  0  0  0  0  0  0  0  0  0  0  0
  136.6868  118.6522  137.5824 C   0  0  0  0  0  0  0  0  0  0  0  0
  136.0434  119.8372  138.7179 Cl  0  0  0  0  0  0  0  0  0  0  0  0
  137.3628  117.5451  138.0404 C   0  0  0  0  0  0  0  0  0  0  0  0
  137.8638  116.6213  137.1459 C   0  0  0  0  0  0  0  0  0  0  0  0
  138.7273  115.2059  137.7137 Cl  0  0  0  0  0  0  0  0  0  0  0  0
  137.7113  116.7655  135.7780 C   0  0  0  0  0  0  0  0  0  0  0  0
  137.3201  116.5712  132.2769 N   0  0  0  0  0  0  0  0  0  0  0  0
  137.6500  115.2797  132.7873 C   0  0  1  0  0  0  0  0  0  0  0  0
  138.2261  114.4398  131.6442 C   0  0  0  0  0  0  0  0  0  0  0  0
  138.1323  113.0526  132.1892 C   0  0  0  0  0  0  0  0  0  0  0  0
  139.0168  113.4084  133.8208 S   0  0  2  0  0  0  0  0  0  0  0  0
  138.7874  115.2915  133.7648 C   0  0  2  0  0  0  0  0  0  0  0  0
  138.3474  115.6341  135.1362 C   0  0  0  0  0  0  0  0  0  0  0  0
  138.5646  114.7293  136.0104 O   0  0  0  0  0  0  0  0  0  0  0  0
  140.5415  112.8079  134.0190 Cl  0  0  0  0  0  0  0  0  0  0  0  0
  1  2  2  0
  2  3  1  0
  3  4  1  0
  4  5  2  0
  5  6  1  0
  6  7  1  0
  6  8  2  0
  8  9  1  0
  9 10  1  0
  9 11  2  0
  2 12  1  0
 12 13  1  0
 13 14  1  6
 14 15  1  0
 15 16  1  0
 16 17  1  0
 17 18  1  1
 18 19  2  0
 16 20  1  6
 11  4  1  0
 18 11  1  0
 17 13  1  0
M  END
>  <docking_score>  (1) 
-7.1280000000000001

$$$$

     RDKit          3D

 20 22  0  0  0  0  0  0  0  0999 V2000
  139.9338  114.1127  138.3839 O   0  0  0  0  0  0  0  0  0  0  0  0
  139.3010  114.5291  137.3948 C   0  0  0  0  0  0  0  0  0  0  0  0
  138.4116  115.6060  137.7458 N   0  0  0  0  0  0  0  0  0  0  0  0
  137.7171  116.5982  136.9840 C   0  0  0  0  0  0  0  0  0  0  0  0
  137.2769  117.5354  137.8871 C   0  0  0  0  0  0  0  0  0  0  0  0
  136.5711  118.6176  137.4462 C   0  0  0  0  0  0  0  0  0  0  0  0
  136.0005  119.8275  138.5944 Cl  0  0  0  0  0  0  0  0  0  0  0  0
  136.3098  118.7556  136.1026 C   0  0  0  0  0  0  0  0  0  0  0  0
  136.7594  117.8048  135.2092 C   0  0  0  0  0  0  0  0  0  0  0  0
  136.4346  117.9662  133.4946 Cl  0  0  0  0  0  0  0  0  0  0  0  0
  137.4776  116.6944  135.6173 C   0  0  0  0  0  0  0  0  0  0  0  0
  139.5583  113.8963  136.1557 N   0  0  0  0  0  0  0  0  0  0  0  0
  139.6143  114.2682  134.7787 C   0  0  1  0  0  0  0  0  0  0  0  0
  140.0914  113.0593  133.9696 C   0  0  0  0  0  0  0  0  0  0  0  0
  140.4944  113.6821  132.6735 C   0  0  0  0  0  0  0  0  0  0  0  0
  138.8761  114.6112  132.3755 S   0  0  2  0  0  0  0  0  0  0  0  0
  138.2688  114.5338  134.1719 C   0  0  2  0  0  0  0  0  0  0  0  0
  137.7909  115.9087  134.4422 C   0  0  0  0  0  0  0  0  0  0  0  0
  137.5901  116.6205  133.4015 O   0  0  0  0  0  0  0  0  0  0  0  0
  137.8771  114.0585  131.1835 Cl  0  0  0  0  0  0  0  0  0  0  0  0
  1  2  2  0
  2  3  1  0
  3  4  1  0
  4  5  2  0
  5  6  1  0
  6  7  1  0
  6  8  2  0
  8  9  1  0
  9 10  1  0
  9 11  2  0
  2 12  1  0
 12 13  1  0
 13 14  1  6
 14 15  1  0
 15 16  1  0
 16 17  1  0
 17 18  1  1
 18 19  2  0
 16 20  1  6
 11  4  1  0
 18 11  1  0
 17 13  1  0
M  END
>  <docking_score>  (2) 
-7.0380000000000003

$$$$
