
     RDKit          3D

 24 26  0  0  0  0  0  0  0  0999 V2000
  138.9316  114.8189  138.1382 O   0  0  0  0  0  0  0  0  0  0  0  0
  138.8004  115.4574  137.0774 C   0  0  0  0  0  0  0  0  0  0  0  0
  138.0444  116.6866  136.8857 N   0  0  0  0  0  0  0  0  0  0  0  0
  137.8426  117.7879  137.7149 C   0  0  0  0  0  0  0  0  0  0  0  0
  138.5997  117.9974  138.8764 C   0  0  0  0  0  0  0  0  0  0  0  0
  138.4159  119.0858  139.7012 C   0  0  0  0  0  0  0  0  0  0  0  0
  137.4675  120.0264  139.4146 C   0  0  0  0  0  0  0  0  0  0  0  0
  137.2314  121.1190  140.1787 F   0  0  0  0  0  0  0  0  0  0  0  0
  136.7045  119.8534  138.2818 C   0  0  0  0  0  0  0  0  0  0  0  0
  135.7497  120.7420  137.9351 F   0  0  0  0  0  0  0  0  0  0  0  0
  136.8924  118.7561  137.4542 C   0  0  0  0  0  0  0  0  0  0  0  0
  137.7345  116.1241  135.5794 C   0  0  1  0  0  0  0  0  0  0  0  0
  137.4400  117.0620  134.5031 C   0  0  0  0  0  0  0  0  0  0  0  0
  136.2217  117.2554  133.9169 C   0  0  0  0  0  0  0  0  0  0  0  0
  136.0398  118.1685  132.9201 C   0  0  0  0  0  0  0  0  0  0  0  0
  137.1137  118.9248  132.4839 C   0  0  0  0  0  0  0  0  0  0  0  0
  138.3509  118.7343  133.0727 C   0  0  0  0  0  0  0  0  0  0  0  0
  138.4611  117.8317  134.0367 N   0  0  0  0  0  0  0  0  0  0  0  0
  139.1153  115.5557  135.6705 C   0  0  2  0  0  0  0  0  0  0  0  0
  139.6513  114.5608  134.8602 C   0  0  0  0  0  0  0  0  0  0  0  0
  140.4863  114.8008  133.7271 C   0  0  0  0  0  0  0  0  0  0  0  0
  140.4868  113.9037  132.6162 N   0  0  0  0  0  0  0  0  0  0  0  0
  140.2797  112.2834  133.3642 Cl  0  0  0  0  0  0  0  0  0  0  0  0
  138.9014  114.0656  131.7706 Cl  0  0  0  0  0  0  0  0  0  0  0  0
  1  2  2  0
  2  3  1  0
  3  4  1  0
  4  5  2  0
  5  6  1  0
  6  7  2  0
  7  8  1  0
  7  9  1  0
  9 10  1  0
  9 11  2  0
  3 12  1  0
 12 13  1  6
 13 14  2  0
 14 15  1  0
 15 16  2  0
 16 17  1  0
 17 18  2  0
 12 19  1  0
 19 20  1  6
 20 21  1  0
 21 22  1  0
 22 23  1  0
 22 24  1  0
 19  2  1  0
 11  4  1  0
 18 13  1  0
M  END
>  <docking_score>  (1) 
-7.1020000000000003

$$$$

     RDKit          3D

 24 26  0  0  0  0  0  0  0  0999 V2000
  140.3485  120.9152  162.3945 O   0  0  0  0  0  0  0  0  0  0  0  0
  139.9487  119.8262  161.9424 C   0  0  0  0  0  0  0  0  0  0  0  0
  138.7088  119.1425  162.2804 N   0  0  0  0  0  0  0  0  0  0  0  0
  137.4353  119.6261  162.5732 C   0  0  0  0  0  0  0  0  0  0  0  0
  136.9480  119.7010  163.8858 C   0  0  0  0  0  0  0  0  0  0  0  0
  135.6939  120.1841  164.1902 C   0  0  0  0  0  0  0  0  0  0  0  0
  134.8554  120.6197  163.2036 C   0  0  0  0  0  0  0  0  0  0  0  0
  133.6116  121.1052  163.4285 F   0  0  0  0  0  0  0  0  0  0  0  0
  135.3001  120.5608  161.9021 C   0  0  0  0  0  0  0  0  0  0  0  0
  134.5272  120.9743  160.8759 F   0  0  0  0  0  0  0  0  0  0  0  0
  136.5633  120.0735  161.5997 C   0  0  0  0  0  0  0  0  0  0  0  0
  139.5032  117.9316  162.1341 C   0  0  1  0  0  0  0  0  0  0  0  0
  138.7970  116.7128  161.7587 C   0  0  0  0  0  0  0  0  0  0  0  0
  137.8771  116.5937  160.7564 C   0  0  0  0  0  0  0  0  0  0  0  0
  137.2750  115.4037  160.4703 C   0  0  0  0  0  0  0  0  0  0  0  0
  137.5990  114.2801  161.2106 C   0  0  0  0  0  0  0  0  0  0  0  0
  138.5299  114.3931  162.2277 C   0  0  0  0  0  0  0  0  0  0  0  0
  139.0789  115.5777  162.4548 N   0  0  0  0  0  0  0  0  0  0  0  0
  140.2029  118.7076  161.0636 C   0  0  2  0  0  0  0  0  0  0  0  0
  141.4102  118.3735  160.4599 C   0  0  0  0  0  0  0  0  0  0  0  0
  141.8567  118.8840  159.2034 C   0  0  0  0  0  0  0  0  0  0  0  0
  141.9131  118.0429  158.0509 N   0  0  0  0  0  0  0  0  0  0  0  0
  141.0723  116.5410  158.5658 Cl  0  0  0  0  0  0  0  0  0  0  0  0
  140.7267  118.6713  156.8458 Cl  0  0  0  0  0  0  0  0  0  0  0  0
  1  2  2  0
  2  3  1  0
  3  4  1  0
  4  5  2  0
  5  6  1  0
  6  7  2  0
  7  8  1  0
  7  9  1  0
  9 10  1  0
  9 11  2  0
  3 12  1  0
 12 13  1  6
 13 14  2  0
 14 15  1  0
 15 16  2  0
 16 17  1  0
 17 18  2  0
 12 19  1  0
 19 20  1  1
 20 21  1  0
 21 22  1  0
 22 23  1  0
 22 24  1  0
 19  2  1  0
 11  4  1  0
 18 13  1  0
M  END
>  <docking_score>  (2) 
-4.6779999999999999

$$$$

     RDKit          3D

 24 26  0  0  0  0  0  0  0  0999 V2000
  142.7313  117.0605  161.0664 O   0  0  0  0  0  0  0  0  0  0  0  0
  141.5126  116.8589  161.2218 C   0  0  0  0  0  0  0  0  0  0  0  0
  140.6236  117.5506  162.1440 N   0  0  0  0  0  0  0  0  0  0  0  0
  140.5817  118.8765  162.5701 C   0  0  0  0  0  0  0  0  0  0  0  0
  140.3049  119.9348  161.6929 C   0  0  0  0  0  0  0  0  0  0  0  0
  140.2529  121.2496  162.1021 C   0  0  0  0  0  0  0  0  0  0  0  0
  140.4735  121.5831  163.4084 C   0  0  0  0  0  0  0  0  0  0  0  0
  140.4392  122.8516  163.8808 F   0  0  0  0  0  0  0  0  0  0  0  0
  140.7487  120.5697  164.2986 C   0  0  0  0  0  0  0  0  0  0  0  0
  140.9764  120.8239  165.6044 F   0  0  0  0  0  0  0  0  0  0  0  0
  140.8005  119.2474  163.8827 C   0  0  0  0  0  0  0  0  0  0  0  0
  139.9792  116.2517  162.2729 C   0  0  1  0  0  0  0  0  0  0  0  0
  138.5671  116.2416  162.6347 C   0  0  0  0  0  0  0  0  0  0  0  0
  137.8856  115.1926  163.1826 C   0  0  0  0  0  0  0  0  0  0  0  0
  136.5619  115.2816  163.4997 C   0  0  0  0  0  0  0  0  0  0  0  0
  135.8822  116.4637  163.2634 C   0  0  0  0  0  0  0  0  0  0  0  0
  136.5657  117.5306  162.7084 C   0  0  0  0  0  0  0  0  0  0  0  0
  137.8512  117.3799  162.4236 N   0  0  0  0  0  0  0  0  0  0  0  0
  140.3458  116.1016  160.8304 C   0  0  2  0  0  0  0  0  0  0  0  0
  140.3202  114.9231  160.0927 C   0  0  0  0  0  0  0  0  0  0  0  0
  139.1682  114.4118  159.4216 C   0  0  0  0  0  0  0  0  0  0  0  0
  137.9393  114.2189  160.1227 N   0  0  0  0  0  0  0  0  0  0  0  0
  136.7102  115.0009  159.0712 Cl  0  0  0  0  0  0  0  0  0  0  0  0
  137.4592  112.4898  159.9370 Cl  0  0  0  0  0  0  0  0  0  0  0  0
  1  2  2  0
  2  3  1  0
  3  4  1  0
  4  5  2  0
  5  6  1  0
  6  7  2  0
  7  8  1  0
  7  9  1  0
  9 10  1  0
  9 11  2  0
  3 12  1  0
 12 13  1  6
 13 14  2  0
 14 15  1  0
 15 16  2  0
 16 17  1  0
 17 18  2  0
 12 19  1  0
 19 20  1  1
 20 21  1  0
 21 22  1  0
 22 23  1  0
 22 24  1  0
 19  2  1  0
 11  4  1  0
 18 13  1  0
M  END
>  <docking_score>  (3) 
-4.2039999999999997

$$$$
