
     RDKit          3D

 20 22  0  0  0  0  0  0  0  0999 V2000
  121.4160  121.3701  143.1096 O   0  0  0  0  0  0  0  0  0  0  0  0
  121.8152  122.5017  142.7352 C   0  0  0  0  0  0  0  0  0  0  0  0
  121.0495  123.0817  141.6819 N   0  0  0  0  0  0  0  0  0  0  0  0
  120.8823  124.4369  141.2168 C   0  0  0  0  0  0  0  0  0  0  0  0
  119.6607  124.4782  140.5728 C   0  0  0  0  0  0  0  0  0  0  0  0
  119.2291  125.6830  140.0128 C   0  0  0  0  0  0  0  0  0  0  0  0
  117.6946  125.8073  139.1837 Cl  0  0  0  0  0  0  0  0  0  0  0  0
  120.0418  126.7888  140.1246 C   0  0  0  0  0  0  0  0  0  0  0  0
  121.2554  126.7314  140.7690 C   0  0  0  0  0  0  0  0  0  0  0  0
  122.0747  127.7992  140.8949 F   0  0  0  0  0  0  0  0  0  0  0  0
  121.7072  125.5378  141.3363 C   0  0  0  0  0  0  0  0  0  0  0  0
  122.9551  122.9280  143.4726 N   0  0  0  0  0  0  0  0  0  0  0  0
  123.3918  124.2888  143.8215 C   0  0  1  0  0  0  0  0  0  0  0  0
  124.4587  124.2554  144.8847 C   0  0  0  0  0  0  0  0  0  0  0  0
  125.6945  124.8303  144.2205 C   0  0  2  0  0  0  0  0  0  0  0  0
  125.0798  125.8355  143.2622 C   0  0  0  0  0  0  0  0  0  0  0  0
  124.0018  124.9862  142.6233 C   0  0  2  0  0  0  0  0  0  0  0  0
  123.0058  125.8470  141.9222 C   0  0  0  0  0  0  0  0  0  0  0  0
  123.3374  127.0537  141.8133 O   0  0  0  0  0  0  0  0  0  0  0  0
  126.3104  123.7898  143.5469 F   0  0  0  0  0  0  0  0  0  0  0  0
  1  2  2  0
  2  3  1  0
  3  4  1  0
  4  5  2  0
  5  6  1  0
  6  7  1  0
  6  8  2  0
  8  9  1  0
  9 10  1  0
  9 11  2  0
  2 12  1  0
 12 13  1  0
 13 14  1  1
 14 15  1  0
 15 16  1  0
 17 16  1  1
 17 18  1  0
 18 19  2  0
 15 20  1  6
 11  4  1  0
 18 11  1  0
 17 13  1  0
M  END
>  <docking_score>  (1) 
-7.5449999999999999

$$$$

     RDKit          3D

 20 22  0  0  0  0  0  0  0  0999 V2000
  122.2375  128.2698  140.1326 O   0  0  0  0  0  0  0  0  0  0  0  0
  121.6614  127.1720  140.3402 C   0  0  0  0  0  0  0  0  0  0  0  0
  122.4235  126.2370  141.1001 N   0  0  0  0  0  0  0  0  0  0  0  0
  122.0656  125.0777  141.8802 C   0  0  0  0  0  0  0  0  0  0  0  0
  123.0799  124.9017  142.8016 C   0  0  0  0  0  0  0  0  0  0  0  0
  123.0002  123.8381  143.7037 C   0  0  0  0  0  0  0  0  0  0  0  0
  124.2477  123.5562  144.8963 Cl  0  0  0  0  0  0  0  0  0  0  0  0
  121.9083  123.0017  143.6399 C   0  0  0  0  0  0  0  0  0  0  0  0
  120.9068  123.1904  142.7167 C   0  0  0  0  0  0  0  0  0  0  0  0
  119.8233  122.3867  142.6295 F   0  0  0  0  0  0  0  0  0  0  0  0
  120.9653  124.2467  141.8050 C   0  0  0  0  0  0  0  0  0  0  0  0
  120.3661  127.1380  139.7520 N   0  0  0  0  0  0  0  0  0  0  0  0
  119.1617  126.4078  140.1767 C   0  0  1  0  0  0  0  0  0  0  0  0
  117.9401  126.9224  139.4606 C   0  0  0  0  0  0  0  0  0  0  0  0
  117.4501  125.7536  138.6284 C   0  0  2  0  0  0  0  0  0  0  0  0
  117.8379  124.5767  139.5065 C   0  0  0  0  0  0  0  0  0  0  0  0
  119.2712  124.9363  139.8350 C   0  0  2  0  0  0  0  0  0  0  0  0
  119.7571  124.1368  140.9966 C   0  0  0  0  0  0  0  0  0  0  0  0
  118.9958  123.2008  141.3465 O   0  0  0  0  0  0  0  0  0  0  0  0
  118.1702  125.7710  137.4465 F   0  0  0  0  0  0  0  0  0  0  0  0
  1  2  2  0
  2  3  1  0
  3  4  1  0
  4  5  2  0
  5  6  1  0
  6  7  1  0
  6  8  2  0
  8  9  1  0
  9 10  1  0
  9 11  2  0
  2 12  1  0
 12 13  1  0
 13 14  1  6
 14 15  1  0
 15 16  1  0
 17 16  1  1
 17 18  1  0
 18 19  2  0
 15 20  1  6
 11  4  1  0
 18 11  1  0
 17 13  1  0
M  END
>  <docking_score>  (2) 
-7.4720000000000004

$$$$

     RDKit          3D

 20 22  0  0  0  0  0  0  0  0999 V2000
  122.1773  121.1724  144.1296 O   0  0  0  0  0  0  0  0  0  0  0  0
  122.2683  122.2780  143.5385 C   0  0  0  0  0  0  0  0  0  0  0  0
  123.3423  123.1023  143.9851 N   0  0  0  0  0  0  0  0  0  0  0  0
  124.0490  124.2086  143.3874 C   0  0  0  0  0  0  0  0  0  0  0  0
  125.2893  124.2504  143.9948 C   0  0  0  0  0  0  0  0  0  0  0  0
  126.2010  125.2360  143.6089 C   0  0  0  0  0  0  0  0  0  0  0  0
  127.7877  125.3475  144.3352 Cl  0  0  0  0  0  0  0  0  0  0  0  0
  125.8268  126.1325  142.6332 C   0  0  0  0  0  0  0  0  0  0  0  0
  124.5883  126.0775  142.0381 C   0  0  0  0  0  0  0  0  0  0  0  0
  124.1923  126.9431  141.0782 F   0  0  0  0  0  0  0  0  0  0  0  0
  123.6608  125.1011  142.4079 C   0  0  0  0  0  0  0  0  0  0  0  0
  121.2550  122.4319  142.5514 N   0  0  0  0  0  0  0  0  0  0  0  0
  121.2817  123.1872  141.2892 C   0  0  1  0  0  0  0  0  0  0  0  0
  120.1225  122.8022  140.4073 C   0  0  0  0  0  0  0  0  0  0  0  0
  119.2891  124.0624  140.2801 C   0  0  2  0  0  0  0  0  0  0  0  0
  120.3601  125.1376  140.3399 C   0  0  0  0  0  0  0  0  0  0  0  0
  121.1510  124.6744  141.5447 C   0  0  2  0  0  0  0  0  0  0  0  0
  122.4828  125.3447  141.5842 C   0  0  0  0  0  0  0  0  0  0  0  0
  122.6221  126.2872  140.7655 O   0  0  0  0  0  0  0  0  0  0  0  0
  118.4554  124.1069  141.3841 F   0  0  0  0  0  0  0  0  0  0  0  0
  1  2  2  0
  2  3  1  0
  3  4  1  0
  4  5  2  0
  5  6  1  0
  6  7  1  0
  6  8  2  0
  8  9  1  0
  9 10  1  0
  9 11  2  0
  2 12  1  0
 12 13  1  0
 13 14  1  6
 14 15  1  0
 15 16  1  0
 17 16  1  6
 17 18  1  0
 18 19  2  0
 15 20  1  1
 11  4  1  0
 18 11  1  0
 17 13  1  0
M  END
>  <docking_score>  (3) 
-7.3460000000000001

$$$$
