
     RDKit          3D

 22 24  0  0  0  0  0  0  0  0999 V2000
  144.7781  137.8325  140.8869 O   0  0  0  0  0  0  0  0  0  0  0  0
  145.3425  136.9367  140.1824 C   0  0  0  0  0  0  0  0  0  0  0  0
  146.7556  136.8702  140.2577 N   0  0  0  0  0  0  0  0  0  0  0  0
  147.4989  137.7443  141.0854 C   0  0  0  0  0  0  0  0  0  0  0  0
  147.9053  137.2799  142.3298 C   0  0  0  0  0  0  0  0  0  0  0  0
  148.6147  138.0722  143.1783 C   0  0  0  0  0  0  0  0  0  0  0  0
  149.1636  137.5533  144.7697 Cl  0  0  0  0  0  0  0  0  0  0  0  0
  148.9359  139.3487  142.8009 C   0  0  0  0  0  0  0  0  0  0  0  0
  148.5469  139.8333  141.5727 C   0  0  0  0  0  0  0  0  0  0  0  0
  148.8739  141.0963  141.2165 F   0  0  0  0  0  0  0  0  0  0  0  0
  147.8349  139.0287  140.7282 C   0  0  0  0  0  0  0  0  0  0  0  0
  144.5422  136.0946  139.3919 N   0  0  0  0  0  0  0  0  0  0  0  0
  143.0957  136.1660  139.3101 C   0  0  1  0  0  0  0  0  0  0  0  0
  142.5772  136.2106  137.9160 C   0  0  0  0  0  0  0  0  0  0  0  0
  141.3808  135.2898  137.8406 C   0  0  1  0  0  0  0  0  0  0  0  0
  141.7290  134.1950  136.8876 C   0  0  0  0  0  0  0  0  0  0  0  0
  140.9038  132.7651  137.6410 S   0  0  0  0  0  0  0  0  0  0  0  0
  140.5362  133.4954  139.2774 C   0  0  0  0  0  0  0  0  0  0  0  0
  141.2074  134.8069  139.2127 C   0  0  1  0  0  0  0  0  0  0  0  0
  142.5229  134.8964  139.9475 C   0  0  2  0  0  0  0  0  0  0  0  0
  142.3438  135.2102  141.4234 C   0  0  0  0  0  0  0  0  0  0  0  0
  142.5557  133.7647  142.4361 Cl  0  0  0  0  0  0  0  0  0  0  0  0
  1  2  2  0
  2  3  1  0
  3  4  1  0
  4  5  2  0
  5  6  1  0
  6  7  1  0
  6  8  2  0
  8  9  1  0
  9 10  1  0
  9 11  2  0
  2 12  1  0
 13 12  1  6
 13 14  1  0
 15 14  1  1
 15 16  1  0
 16 17  1  0
 17 18  1  0
 19 18  1  6
 19 20  1  0
 20 21  1  1
 21 22  1  0
 11  4  1  0
 20 13  1  0
 19 15  1  0
M  END
>  <docking_score>  (1) 
-6.4749999999999996

$$$$

     RDKit          3D

 22 24  0  0  0  0  0  0  0  0999 V2000
  126.7363  125.7946  142.3907 O   0  0  0  0  0  0  0  0  0  0  0  0
  127.2942  125.4569  143.4825 C   0  0  0  0  0  0  0  0  0  0  0  0
  126.4581  124.8725  144.4655 N   0  0  0  0  0  0  0  0  0  0  0  0
  125.0777  124.6609  144.2384 C   0  0  0  0  0  0  0  0  0  0  0  0
  124.5993  123.3577  144.2820 C   0  0  0  0  0  0  0  0  0  0  0  0
  123.2847  123.0839  144.0632 C   0  0  0  0  0  0  0  0  0  0  0  0
  122.6061  121.4587  144.1020 Cl  0  0  0  0  0  0  0  0  0  0  0  0
  122.4164  124.1088  143.7971 C   0  0  0  0  0  0  0  0  0  0  0  0
  122.8640  125.4096  143.7498 C   0  0  0  0  0  0  0  0  0  0  0  0
  121.9919  126.4091  143.4865 F   0  0  0  0  0  0  0  0  0  0  0  0
  124.1865  125.6732  143.9712 C   0  0  0  0  0  0  0  0  0  0  0  0
  128.6721  125.6854  143.6363 N   0  0  0  0  0  0  0  0  0  0  0  0
  129.5275  126.2890  142.6323 C   0  0  1  0  0  0  0  0  0  0  0  0
  130.1180  127.5885  143.0528 C   0  0  0  0  0  0  0  0  0  0  0  0
  131.5685  127.5938  142.6275 C   0  0  1  0  0  0  0  0  0  0  0  0
  132.3904  127.6634  143.8715 C   0  0  0  0  0  0  0  0  0  0  0  0
  133.8162  126.6279  143.4378 S   0  0  0  0  0  0  0  0  0  0  0  0
  133.1326  125.8414  141.9344 C   0  0  0  0  0  0  0  0  0  0  0  0
  131.7409  126.3284  141.9099 C   0  0  1  0  0  0  0  0  0  0  0  0
  130.7018  125.3388  142.3783 C   0  0  2  0  0  0  0  0  0  0  0  0
  130.2522  124.4003  141.2711 C   0  0  0  0  0  0  0  0  0  0  0  0
  131.6099  123.4652  140.6065 Cl  0  0  0  0  0  0  0  0  0  0  0  0
  1  2  2  0
  2  3  1  0
  3  4  1  0
  4  5  2  0
  5  6  1  0
  6  7  1  0
  6  8  2  0
  8  9  1  0
  9 10  1  0
  9 11  2  0
  2 12  1  0
 13 12  1  1
 13 14  1  0
 15 14  1  1
 15 16  1  0
 16 17  1  0
 17 18  1  0
 19 18  1  1
 19 20  1  0
 20 21  1  6
 21 22  1  0
 11  4  1  0
 20 13  1  0
 19 15  1  0
M  END
>  <docking_score>  (2) 
-6.0350000000000001

$$$$

     RDKit          3D

 22 24  0  0  0  0  0  0  0  0999 V2000
  144.4806  132.0613  135.3656 O   0  0  0  0  0  0  0  0  0  0  0  0
  144.7753  132.7830  134.3608 C   0  0  0  0  0  0  0  0  0  0  0  0
  143.8344  133.7787  133.9998 N   0  0  0  0  0  0  0  0  0  0  0  0
  142.6371  133.9707  134.7287 C   0  0  0  0  0  0  0  0  0  0  0  0
  141.4406  133.5911  134.1340 C   0  0  0  0  0  0  0  0  0  0  0  0
  140.2528  133.7571  134.7763 C   0  0  0  0  0  0  0  0  0  0  0  0
  138.6975  133.3005  134.0865 Cl  0  0  0  0  0  0  0  0  0  0  0  0
  140.2341  134.3058  136.0308 C   0  0  0  0  0  0  0  0  0  0  0  0
  141.4055  134.6890  136.6436 C   0  0  0  0  0  0  0  0  0  0  0  0
  141.3678  135.2283  137.8833 F   0  0  0  0  0  0  0  0  0  0  0  0
  142.5929  134.5175  135.9894 C   0  0  0  0  0  0  0  0  0  0  0  0
  145.9869  132.5453  133.6900 N   0  0  0  0  0  0  0  0  0  0  0  0
  146.9479  131.5222  134.0556 C   0  0  1  0  0  0  0  0  0  0  0  0
  146.5939  130.1647  133.5595 C   0  0  0  0  0  0  0  0  0  0  0  0
  147.8561  129.5264  133.0262 C   0  0  1  0  0  0  0  0  0  0  0  0
  147.6517  129.3044  131.5643 C   0  0  0  0  0  0  0  0  0  0  0  0
  149.3113  129.6196  130.9013 S   0  0  0  0  0  0  0  0  0  0  0  0
  150.0500  130.4023  132.3804 C   0  0  0  0  0  0  0  0  0  0  0  0
  148.9057  130.5098  133.3042 C   0  0  1  0  0  0  0  0  0  0  0  0
  148.2909  131.8841  133.4142 C   0  0  2  0  0  0  0  0  0  0  0  0
  149.0138  132.7652  134.4191 C   0  0  0  0  0  0  0  0  0  0  0  0
  148.8590  132.1406  136.0761 Cl  0  0  0  0  0  0  0  0  0  0  0  0
  1  2  2  0
  2  3  1  0
  3  4  1  0
  4  5  2  0
  5  6  1  0
  6  7  1  0
  6  8  2  0
  8  9  1  0
  9 10  1  0
  9 11  2  0
  2 12  1  0
 13 12  1  6
 13 14  1  0
 15 14  1  6
 15 16  1  0
 16 17  1  0
 17 18  1  0
 19 18  1  6
 19 20  1  0
 20 21  1  1
 21 22  1  0
 11  4  1  0
 20 13  1  0
 19 15  1  0
M  END
>  <docking_score>  (3) 
-5.9699999999999998

$$$$
