
     RDKit          3D

 20 21  0  0  0  0  0  0  0  0999 V2000
  134.6712  133.1749  139.6495 O   0  0  0  0  0  0  0  0  0  0  0  0
  133.7819  133.8241  139.0323 C   0  0  0  0  0  0  0  0  0  0  0  0
  132.6846  134.4595  139.5494 N   0  0  0  0  0  0  0  0  0  0  0  0
  131.4175  134.8277  139.2003 C   0  0  0  0  0  0  0  0  0  0  0  0
  131.0597  136.1466  139.4704 C   0  0  0  0  0  0  0  0  0  0  0  0
  129.8323  136.6889  139.1927 C   0  0  0  0  0  0  0  0  0  0  0  0
  129.4386  138.3621  139.5570 Cl  0  0  0  0  0  0  0  0  0  0  0  0
  128.8884  135.9059  138.6163 C   0  0  0  0  0  0  0  0  0  0  0  0
  129.1845  134.5900  138.3250 C   0  0  0  0  0  0  0  0  0  0  0  0
  127.8897  133.6631  137.5822 Cl  0  0  0  0  0  0  0  0  0  0  0  0
  130.4402  134.0419  138.6111 C   0  0  0  0  0  0  0  0  0  0  0  0
  133.9713  133.8851  137.6248 N   0  0  0  0  0  0  0  0  0  0  0  0
  133.2402  134.7356  136.7217 C   0  0  0  0  0  0  0  0  0  0  0  0
  132.0167  134.0544  136.1488 C   0  0  0  0  0  0  0  0  0  0  0  0
  132.4727  132.7089  135.6167 C   0  0  0  0  0  0  0  0  0  0  0  0
  131.8904  131.5762  136.4153 C   0  0  2  0  0  0  0  0  0  0  0  0
  131.9076  132.0062  137.8838 C   0  0  0  0  0  0  0  0  0  0  0  0
  130.6177  132.6406  138.2558 C   0  0  0  0  0  0  0  0  0  0  0  0
  129.6171  131.8668  138.2513 O   0  0  0  0  0  0  0  0  0  0  0  0
  132.6352  130.4257  136.3353 F   0  0  0  0  0  0  0  0  0  0  0  0
  1  2  2  0
  2  3  1  0
  3  4  1  0
  4  5  2  0
  5  6  1  0
  6  7  1  0
  6  8  2  0
  8  9  1  0
  9 10  1  0
  9 11  2  0
  2 12  1  0
 12 13  1  0
 13 14  1  0
 14 15  1  0
 15 16  1  0
 16 17  1  0
 17 18  1  0
 18 19  2  0
 16 20  1  1
 11  4  1  0
 18 11  1  0
M  END
>  <docking_score>  (1) 
-6.5890000000000004

$$$$
