
     RDKit          3D

 11 11  0  0  0  0  0  0  0  0999 V2000
  140.6863  134.7605  137.9490 O   0  0  0  0  0  0  0  0  0  0  0  0
  141.0550  133.7839  137.2635 C   0  0  0  0  0  0  0  0  0  0  0  0
  140.3983  133.3927  136.0475 N   0  0  0  0  0  0  0  0  0  0  0  0
  141.1111  133.8018  134.8859 C   0  0  0  0  0  0  0  0  0  0  0  0
  140.6244  133.8918  133.6527 C   0  0  0  0  0  0  0  0  0  0  0  0
  139.2555  133.5927  133.2141 C   0  0  0  0  0  0  0  0  0  0  0  0
  139.1106  133.4393  131.9071 C   0  0  0  0  0  0  0  0  0  0  0  0
  137.9068  133.1614  131.3672 F   0  0  0  0  0  0  0  0  0  0  0  0
  139.1692  132.6754  136.2048 C   0  0  0  0  0  0  0  0  0  0  0  0
  138.0985  133.0789  135.2873 C   0  0  0  0  0  0  0  0  0  0  0  0
  138.1132  133.4595  134.0541 N   0  0  0  0  0  0  0  0  0  0  0  0
  1  2  2  0
  2  3  1  0
  3  4  1  0
  4  5  2  0
  5  6  1  0
  6  7  2  3
  7  8  1  0
  3  9  1  0
  9 10  1  0
 10 11  2  0
 11  6  1  0
M  END
>  <docking_score>  (1) 
-4.2400000000000002

$$$$

     RDKit          3D

 11 11  0  0  0  0  0  0  0  0999 V2000
  132.2898  135.0139  140.0642 O   0  0  0  0  0  0  0  0  0  0  0  0
  131.5373  134.4855  139.2191 C   0  0  0  0  0  0  0  0  0  0  0  0
  131.9812  133.4677  138.3081 N   0  0  0  0  0  0  0  0  0  0  0  0
  132.5873  132.3656  138.9738 C   0  0  0  0  0  0  0  0  0  0  0  0
  133.3776  131.4497  138.4239 C   0  0  0  0  0  0  0  0  0  0  0  0
  133.7999  131.3682  137.0201 C   0  0  0  0  0  0  0  0  0  0  0  0
  134.3032  130.1988  136.6570 C   0  0  0  0  0  0  0  0  0  0  0  0
  134.7307  129.9852  135.3963 F   0  0  0  0  0  0  0  0  0  0  0  0
  131.7453  133.7265  136.9199 C   0  0  0  0  0  0  0  0  0  0  0  0
  132.8572  133.3762  136.0301 C   0  0  0  0  0  0  0  0  0  0  0  0
  133.7136  132.4109  136.0538 N   0  0  0  0  0  0  0  0  0  0  0  0
  1  2  2  0
  2  3  1  0
  3  4  1  0
  4  5  2  0
  5  6  1  0
  6  7  2  3
  7  8  1  0
  3  9  1  0
  9 10  1  0
 10 11  2  0
 11  6  1  0
M  END
>  <docking_score>  (2) 
-2.4889999999999999

$$$$
