
     RDKit          3D

 25 28  0  0  0  0  0  0  0  0999 V2000
  135.9877  124.0059  139.5154 O   0  0  0  0  0  0  0  0  0  0  0  0
  136.4141  123.6851  140.6565 C   0  0  0  0  0  0  0  0  0  0  0  0
  136.8343  122.3576  140.8633 N   0  0  0  0  0  0  0  0  0  0  0  0
  136.8499  121.3022  139.9086 C   0  0  1  0  0  0  0  0  0  0  0  0
  137.4037  119.9748  140.1466 C   0  0  1  0  0  0  0  0  0  0  0  0
  135.9610  120.1075  140.3913 C   0  0  2  0  0  0  0  0  0  0  0  0
  135.1009  119.4956  139.3064 C   0  0  0  0  0  0  0  0  0  0  0  0
  135.4926  118.0668  139.0755 C   0  0  0  0  0  0  0  0  0  0  0  0
  136.8132  117.8980  138.9288 C   0  0  0  0  0  0  0  0  0  0  0  0
  137.7426  119.0536  138.9990 C   0  0  0  0  0  0  0  0  0  0  0  0
  136.4888  124.5754  141.7150 N   0  0  0  0  0  0  0  0  0  0  0  0
  136.1877  125.9165  141.8418 C   0  0  0  0  0  0  0  0  0  0  0  0
  136.2447  126.5049  143.2093 C   0  0  0  0  0  0  0  0  0  0  0  0
  135.7391  127.9179  143.2263 C   0  0  0  0  0  0  0  0  0  0  0  0
  136.9386  128.8135  143.3385 C   0  0  0  0  0  0  0  0  0  0  0  0
  137.4798  129.3526  142.2041 N   0  0  0  0  0  0  0  0  0  0  0  0
  138.5281  130.1037  142.5540 C   0  0  0  0  0  0  0  0  0  0  0  0
  139.4120  130.8449  141.6683 C   0  0  0  0  0  0  0  0  0  0  0  0
  140.7640  130.9664  141.9235 C   0  0  0  0  0  0  0  0  0  0  0  0
  141.6005  131.6535  141.0852 C   0  0  0  0  0  0  0  0  0  0  0  0
  141.1070  132.2603  139.9344 C   0  0  0  0  0  0  0  0  0  0  0  0
  139.7456  132.1473  139.6634 C   0  0  0  0  0  0  0  0  0  0  0  0
  138.9512  131.4554  140.5235 C   0  0  0  0  0  0  0  0  0  0  0  0
  138.6157  130.0194  143.8760 N   0  0  0  0  0  0  0  0  0  0  0  0
  137.6496  129.2398  144.3170 O   0  0  0  0  0  0  0  0  0  0  0  0
  1  2  2  0
  2  3  1  0
  4  3  1  1
  4  5  1  0
  5  6  1  0
  6  7  1  6
  7  8  1  0
  8  9  2  0
  9 10  1  0
  2 11  1  0
 11 12  1  0
 12 13  1  0
 13 14  1  0
 14 15  1  0
 15 16  2  0
 16 17  1  0
 17 18  1  0
 18 19  2  0
 19 20  1  0
 20 21  2  0
 21 22  1  0
 22 23  2  0
 17 24  2  0
 24 25  1  0
  6  4  1  0
  5 10  1  6
 25 15  1  0
 23 18  1  0
M  END
>  <docking_score>  (1) 
-7.2679999999999998

$$$$

     RDKit          3D

 25 28  0  0  0  0  0  0  0  0999 V2000
  137.1718  117.0614  138.1136 O   0  0  0  0  0  0  0  0  0  0  0  0
  137.1723  118.1776  137.5298 C   0  0  0  0  0  0  0  0  0  0  0  0
  137.2612  118.1963  136.1250 N   0  0  0  0  0  0  0  0  0  0  0  0
  137.3398  117.0738  135.2536 C   0  0  1  0  0  0  0  0  0  0  0  0
  137.4922  117.1550  133.8060 C   0  0  1  0  0  0  0  0  0  0  0  0
  138.7430  117.0081  134.5628 C   0  0  2  0  0  0  0  0  0  0  0  0
  139.3365  115.6174  134.4935 C   0  0  0  0  0  0  0  0  0  0  0  0
  139.5024  115.1927  133.0651 C   0  0  0  0  0  0  0  0  0  0  0  0
  138.4036  115.3887  132.3246 C   0  0  0  0  0  0  0  0  0  0  0  0
  137.1760  115.9731  132.9207 C   0  0  0  0  0  0  0  0  0  0  0  0
  137.0896  119.3849  138.2038 N   0  0  0  0  0  0  0  0  0  0  0  0
  136.9720  119.7127  139.5394 C   0  0  0  0  0  0  0  0  0  0  0  0
  135.6968  120.3445  139.9799 C   0  0  0  0  0  0  0  0  0  0  0  0
  135.9361  121.6614  140.6590 C   0  0  0  0  0  0  0  0  0  0  0  0
  135.0436  122.6685  139.9937 C   0  0  0  0  0  0  0  0  0  0  0  0
  135.5565  123.4738  139.0145 N   0  0  0  0  0  0  0  0  0  0  0  0
  134.5832  124.2797  138.5800 C   0  0  0  0  0  0  0  0  0  0  0  0
  134.6872  125.3116  137.5605 C   0  0  0  0  0  0  0  0  0  0  0  0
  133.5710  125.8363  136.9389 C   0  0  0  0  0  0  0  0  0  0  0  0
  133.6652  126.8163  135.9874 C   0  0  0  0  0  0  0  0  0  0  0  0
  134.9064  127.3200  135.6109 C   0  0  0  0  0  0  0  0  0  0  0  0
  136.0417  126.8007  136.2280 C   0  0  0  0  0  0  0  0  0  0  0  0
  135.9017  125.8280  137.1683 C   0  0  0  0  0  0  0  0  0  0  0  0
  133.5030  123.9642  139.2843 N   0  0  0  0  0  0  0  0  0  0  0  0
  133.8102  122.9955  140.1226 O   0  0  0  0  0  0  0  0  0  0  0  0
  1  2  2  0
  2  3  1  0
  4  3  1  1
  4  5  1  0
  5  6  1  0
  6  7  1  6
  7  8  1  0
  8  9  2  0
  9 10  1  0
  2 11  1  0
 11 12  1  0
 12 13  1  0
 13 14  1  0
 14 15  1  0
 15 16  2  0
 16 17  1  0
 17 18  1  0
 18 19  2  0
 19 20  1  0
 20 21  2  0
 21 22  1  0
 22 23  2  0
 17 24  2  0
 24 25  1  0
  6  4  1  0
  5 10  1  6
 25 15  1  0
 23 18  1  0
M  END
>  <docking_score>  (2) 
-7.1349999999999998

$$$$

     RDKit          3D

 25 28  0  0  0  0  0  0  0  0999 V2000
  136.9023  119.1023  140.0235 O   0  0  0  0  0  0  0  0  0  0  0  0
  136.7339  119.5884  138.8736 C   0  0  0  0  0  0  0  0  0  0  0  0
  136.1570  120.8680  138.7674 N   0  0  0  0  0  0  0  0  0  0  0  0
  135.7389  121.7135  139.8332 C   0  0  1  0  0  0  0  0  0  0  0  0
  136.4205  122.9364  140.2398 C   0  0  1  0  0  0  0  0  0  0  0  0
  135.3148  123.1189  139.2895 C   0  0  2  0  0  0  0  0  0  0  0  0
  134.0559  123.6745  139.9200 C   0  0  0  0  0  0  0  0  0  0  0  0
  134.3608  124.9412  140.6620 C   0  0  0  0  0  0  0  0  0  0  0  0
  135.4165  124.8338  141.4795 C   0  0  0  0  0  0  0  0  0  0  0  0
  136.1671  123.5579  141.5926 C   0  0  0  0  0  0  0  0  0  0  0  0
  137.0893  118.9242  137.7111 N   0  0  0  0  0  0  0  0  0  0  0  0
  137.6805  117.7009  137.4675 C   0  0  0  0  0  0  0  0  0  0  0  0
  136.9167  116.7234  136.6426 C   0  0  0  0  0  0  0  0  0  0  0  0
  135.7383  117.3659  135.9711 C   0  0  0  0  0  0  0  0  0  0  0  0
  136.0715  117.4807  134.5118 C   0  0  0  0  0  0  0  0  0  0  0  0
  135.9614  116.3773  133.7113 N   0  0  0  0  0  0  0  0  0  0  0  0
  136.3099  116.7228  132.4685 C   0  0  0  0  0  0  0  0  0  0  0  0
  136.3615  115.8599  131.2989 C   0  0  0  0  0  0  0  0  0  0  0  0
  135.2261  115.2704  130.7782 C   0  0  0  0  0  0  0  0  0  0  0  0
  135.2701  114.4672  129.6703 C   0  0  0  0  0  0  0  0  0  0  0  0
  136.4776  114.2154  129.0263 C   0  0  0  0  0  0  0  0  0  0  0  0
  137.6316  114.8021  129.5396 C   0  0  0  0  0  0  0  0  0  0  0  0
  137.5418  115.5932  130.6423 C   0  0  0  0  0  0  0  0  0  0  0  0
  136.6230  118.0119  132.5195 N   0  0  0  0  0  0  0  0  0  0  0  0
  136.4699  118.4377  133.7568 O   0  0  0  0  0  0  0  0  0  0  0  0
  1  2  2  0
  2  3  1  0
  4  3  1  6
  4  5  1  0
  5  6  1  0
  6  7  1  1
  7  8  1  0
  8  9  2  0
  9 10  1  0
  2 11  1  0
 11 12  1  0
 12 13  1  0
 13 14  1  0
 14 15  1  0
 15 16  2  0
 16 17  1  0
 17 18  1  0
 18 19  2  0
 19 20  1  0
 20 21  2  0
 21 22  1  0
 22 23  2  0
 17 24  2  0
 24 25  1  0
  6  4  1  0
  5 10  1  1
 25 15  1  0
 23 18  1  0
M  END
>  <docking_score>  (3) 
-7.1070000000000002

$$$$
