
     RDKit          3D

 30 33  0  0  0  0  0  0  0  0999 V2000
  137.4031  119.1928  136.9838 O   0  0  0  0  0  0  0  0  0  0  0  0
  137.1682  118.2763  137.7804 C   0  0  0  0  0  0  0  0  0  0  0  0
  136.9044  116.9504  137.3164 N   0  0  0  0  0  0  0  0  0  0  0  0
  136.9261  116.6913  135.8669 C   0  0  2  0  0  0  0  0  0  0  0  0
  137.8825  115.5094  135.4808 C   0  0  0  0  0  0  0  0  0  0  0  0
  138.3340  116.9198  135.2824 C   0  0  1  0  0  0  0  0  0  0  0  0
  138.2838  117.3787  133.8484 C   0  0  0  0  0  0  0  0  0  0  0  0
  137.3972  116.7367  133.0225 C   0  0  0  0  0  0  0  0  0  0  0  0
  137.3074  117.1084  131.7132 C   0  0  0  0  0  0  0  0  0  0  0  0
  138.0933  118.1186  131.2193 C   0  0  0  0  0  0  0  0  0  0  0  0
  138.9823  118.7643  132.0527 C   0  0  0  0  0  0  0  0  0  0  0  0
  139.0660  118.3858  133.3539 C   0  0  0  0  0  0  0  0  0  0  0  0
  137.1747  118.6244  139.1796 N   0  0  0  0  0  0  0  0  0  0  0  0
  137.4813  120.0162  139.5594 C   0  0  0  0  0  0  0  0  0  0  0  0
  136.2584  120.8716  139.3210 C   0  0  2  0  0  0  0  0  0  0  0  0
  136.3800  122.1079  140.1580 C   0  0  1  0  0  0  0  0  0  0  0  0
  135.5163  123.2328  139.7479 C   0  0  0  0  0  0  0  0  0  0  0  0
  135.1156  123.5470  138.5373 N   0  0  0  0  0  0  0  0  0  0  0  0
  134.3351  124.6591  138.5455 C   0  0  0  0  0  0  0  0  0  0  0  0
  133.6915  125.3229  137.4381 C   0  0  0  0  0  0  0  0  0  0  0  0
  134.1463  125.9538  136.4976 C   0  0  0  0  0  0  0  0  0  0  0  0
  134.5184  126.6538  135.4387 C   0  0  0  0  0  0  0  0  0  0  0  0
  134.7378  128.0012  135.2924 C   0  0  0  0  0  0  0  0  0  0  0  0
  134.5082  128.7152  136.5719 C   0  0  0  0  0  0  0  0  0  0  0  0
  134.3244  129.2685  137.5479 N   0  0  0  0  0  0  0  0  0  0  0  0
  134.2733  125.0154  139.8528 N   0  0  0  0  0  0  0  0  0  0  0  0
  134.9875  124.1511  140.5559 O   0  0  0  0  0  0  0  0  0  0  0  0
  135.9347  121.5984  141.5336 C   0  0  0  0  0  0  0  0  0  0  0  0
  134.7275  120.6948  141.2181 C   0  0  0  0  0  0  0  0  0  0  0  0
  135.0795  120.0883  139.8540 C   0  0  0  0  0  0  0  0  0  0  0  0
  1  2  2  0
  2  3  1  0
  4  3  1  1
  4  5  1  0
  5  6  1  0
  6  7  1  6
  7  8  2  0
  8  9  1  0
  9 10  2  0
 10 11  1  0
 11 12  2  0
  2 13  1  0
 13 14  1  0
 15 14  1  1
 15 16  1  0
 16 17  1  6
 17 18  2  0
 18 19  1  0
 19 20  1  0
 20 21  2  3
 21 22  1  0
 22 23  2  3
 23 24  1  0
 24 25  3  0
 19 26  2  0
 26 27  1  0
 16 28  1  0
 28 29  1  0
 29 30  1  0
  6  4  1  0
 12  7  1  0
 30 15  1  0
 27 17  1  0
M  END
>  <docking_score>  (1) 
-8.2959999999999994

$$$$

     RDKit          3D

 30 33  0  0  0  0  0  0  0  0999 V2000
  133.9112  124.0879  138.3692 O   0  0  0  0  0  0  0  0  0  0  0  0
  134.6349  124.6437  139.2041 C   0  0  0  0  0  0  0  0  0  0  0  0
  135.3112  123.8855  140.2095 N   0  0  0  0  0  0  0  0  0  0  0  0
  135.1375  122.4232  140.2285 C   0  0  2  0  0  0  0  0  0  0  0  0
  136.1491  121.7093  141.1916 C   0  0  0  0  0  0  0  0  0  0  0  0
  136.4036  121.7064  139.7194 C   0  0  1  0  0  0  0  0  0  0  0  0
  136.0813  120.3964  139.0487 C   0  0  0  0  0  0  0  0  0  0  0  0
  135.1727  119.5847  139.6780 C   0  0  0  0  0  0  0  0  0  0  0  0
  134.8415  118.3856  139.1186 C   0  0  0  0  0  0  0  0  0  0  0  0
  135.4069  117.9888  137.9333 C   0  0  0  0  0  0  0  0  0  0  0  0
  136.3185  118.8083  137.3013 C   0  0  0  0  0  0  0  0  0  0  0  0
  136.6434  119.9989  137.8669 C   0  0  0  0  0  0  0  0  0  0  0  0
  134.7488  126.0774  139.1023 N   0  0  0  0  0  0  0  0  0  0  0  0
  134.0300  126.7672  138.0147 C   0  0  0  0  0  0  0  0  0  0  0  0
  134.9137  127.8586  137.4563 C   0  0  2  0  0  0  0  0  0  0  0  0
  134.6305  129.1226  138.2084 C   0  0  1  0  0  0  0  0  0  0  0  0
  135.6708  130.1647  138.1017 C   0  0  0  0  0  0  0  0  0  0  0  0
  136.8508  130.0761  137.5319 N   0  0  0  0  0  0  0  0  0  0  0  0
  137.5430  131.2403  137.6397 C   0  0  0  0  0  0  0  0  0  0  0  0
  138.8595  131.5612  137.1447 C   0  0  0  0  0  0  0  0  0  0  0  0
  139.3462  132.6130  136.7624 C   0  0  0  0  0  0  0  0  0  0  0  0
  139.9824  133.6882  136.3276 C   0  0  0  0  0  0  0  0  0  0  0  0
  139.8978  134.3504  135.1278 C   0  0  0  0  0  0  0  0  0  0  0  0
  138.9082  133.7000  134.2349 C   0  0  0  0  0  0  0  0  0  0  0  0
  138.1575  133.1998  133.5430 N   0  0  0  0  0  0  0  0  0  0  0  0
  136.7062  132.0663  138.3160 N   0  0  0  0  0  0  0  0  0  0  0  0
  135.5923  131.4041  138.5850 O   0  0  0  0  0  0  0  0  0  0  0  0
  133.3477  129.6112  137.5257 C   0  0  0  0  0  0  0  0  0  0  0  0
  133.6053  129.3504  136.0293 C   0  0  0  0  0  0  0  0  0  0  0  0
  134.4663  128.0811  136.0288 C   0  0  0  0  0  0  0  0  0  0  0  0
  1  2  2  0
  2  3  1  0
  4  3  1  1
  4  5  1  0
  5  6  1  0
  6  7  1  6
  7  8  2  0
  8  9  1  0
  9 10  2  0
 10 11  1  0
 11 12  2  0
  2 13  1  0
 13 14  1  0
 15 14  1  1
 15 16  1  0
 16 17  1  6
 17 18  2  0
 18 19  1  0
 19 20  1  0
 20 21  2  3
 21 22  1  0
 22 23  2  3
 23 24  1  0
 24 25  3  0
 19 26  2  0
 26 27  1  0
 16 28  1  0
 28 29  1  0
 29 30  1  0
  6  4  1  0
 12  7  1  0
 30 15  1  0
 27 17  1  0
M  END
>  <docking_score>  (2) 
-8.2330000000000005

$$$$

     RDKit          3D

 30 33  0  0  0  0  0  0  0  0999 V2000
  127.0525  126.3539  142.6637 O   0  0  0  0  0  0  0  0  0  0  0  0
  127.4183  125.5123  143.4929 C   0  0  0  0  0  0  0  0  0  0  0  0
  126.4926  124.5706  144.0400 N   0  0  0  0  0  0  0  0  0  0  0  0
  125.0909  124.6145  143.5904 C   0  0  2  0  0  0  0  0  0  0  0  0
  124.2238  125.6244  144.4204 C   0  0  0  0  0  0  0  0  0  0  0  0
  124.1335  124.1615  144.7104 C   0  0  1  0  0  0  0  0  0  0  0  0
  122.8912  123.5083  144.1631 C   0  0  0  0  0  0  0  0  0  0  0  0
  122.9755  122.1742  143.8571 C   0  0  0  0  0  0  0  0  0  0  0  0
  121.8829  121.5285  143.3574 C   0  0  0  0  0  0  0  0  0  0  0  0
  120.7034  122.2014  143.1623 C   0  0  0  0  0  0  0  0  0  0  0  0
  120.6207  123.5425  143.4733 C   0  0  0  0  0  0  0  0  0  0  0  0
  121.7142  124.1771  143.9681 C   0  0  0  0  0  0  0  0  0  0  0  0
  128.8105  125.5425  143.8671 N   0  0  0  0  0  0  0  0  0  0  0  0
  129.6917  126.5379  143.2285 C   0  0  0  0  0  0  0  0  0  0  0  0
  130.8293  125.8184  142.5415 C   0  0  2  0  0  0  0  0  0  0  0  0
  130.9278  126.3294  141.1369 C   0  0  1  0  0  0  0  0  0  0  0  0
  132.2137  126.0669  140.4606 C   0  0  0  0  0  0  0  0  0  0  0  0
  132.7958  124.9090  140.2483 N   0  0  0  0  0  0  0  0  0  0  0  0
  133.9811  125.0602  139.6017 C   0  0  0  0  0  0  0  0  0  0  0  0
  134.9170  124.0481  139.1761 C   0  0  0  0  0  0  0  0  0  0  0  0
  135.6048  123.2641  139.8098 C   0  0  0  0  0  0  0  0  0  0  0  0
  136.3934  122.3706  140.3841 C   0  0  0  0  0  0  0  0  0  0  0  0
  136.1251  121.1002  140.8302 C   0  0  0  0  0  0  0  0  0  0  0  0
  134.7063  120.7438  140.5859 C   0  0  0  0  0  0  0  0  0  0  0  0
  133.6173  120.4691  140.4094 N   0  0  0  0  0  0  0  0  0  0  0  0
  134.0956  126.3996  139.4209 N   0  0  0  0  0  0  0  0  0  0  0  0
  133.0296  126.9847  139.9430 O   0  0  0  0  0  0  0  0  0  0  0  0
  129.8143  125.5399  140.4389 C   0  0  0  0  0  0  0  0  0  0  0  0
  129.9510  124.1195  141.0196 C   0  0  0  0  0  0  0  0  0  0  0  0
  130.4251  124.3634  142.4577 C   0  0  0  0  0  0  0  0  0  0  0  0
  1  2  2  0
  2  3  1  0
  4  3  1  1
  4  5  1  0
  5  6  1  0
  6  7  1  6
  7  8  2  0
  8  9  1  0
  9 10  2  0
 10 11  1  0
 11 12  2  0
  2 13  1  0
 13 14  1  0
 15 14  1  1
 15 16  1  0
 16 17  1  6
 17 18  2  0
 18 19  1  0
 19 20  1  0
 20 21  2  3
 21 22  1  0
 22 23  2  3
 23 24  1  0
 24 25  3  0
 19 26  2  0
 26 27  1  0
 16 28  1  0
 28 29  1  0
 29 30  1  0
  6  4  1  0
 12  7  1  0
 30 15  1  0
 27 17  1  0
M  END
>  <docking_score>  (3) 
-8.2219999999999995

$$$$
