
     RDKit          3D

 25 27  0  0  0  0  0  0  0  0999 V2000
  142.4275  131.9972  135.3030 O   0  0  0  0  0  0  0  0  0  0  0  0
  142.8463  133.1310  134.9874 C   0  0  0  0  0  0  0  0  0  0  0  0
  141.9452  134.0591  134.4166 N   0  0  0  0  0  0  0  0  0  0  0  0
  140.5951  133.6997  134.2108 C   0  0  0  0  0  0  0  0  0  0  0  0
  139.7993  133.3535  135.2791 C   0  0  0  0  0  0  0  0  0  0  0  0
  138.4645  132.9972  135.0827 C   0  0  0  0  0  0  0  0  0  0  0  0
  137.4162  132.5511  136.4025 Cl  0  0  0  0  0  0  0  0  0  0  0  0
  137.9368  132.9912  133.8097 C   0  0  0  0  0  0  0  0  0  0  0  0
  138.7300  133.3379  132.7302 C   0  0  0  0  0  0  0  0  0  0  0  0
  138.2622  133.3482  131.4632 F   0  0  0  0  0  0  0  0  0  0  0  0
  140.0607  133.6902  132.9521 C   0  0  0  0  0  0  0  0  0  0  0  0
  144.2066  133.5402  135.1772 N   0  0  0  0  0  0  0  0  0  0  0  0
  145.3672  133.0316  134.5537 C   0  0  0  0  0  0  0  0  0  0  0  0
  145.7895  131.9890  133.5447 C   0  0  0  0  0  0  0  0  0  0  0  0
  147.2192  131.7090  134.0306 C   0  0  1  0  0  0  0  0  0  0  0  0
  147.6631  133.1257  134.3274 C   0  0  0  0  0  0  0  0  0  0  0  0
  146.4229  133.6696  134.9943 C   0  0  0  0  0  0  0  0  0  0  0  0
  146.0713  134.6946  135.9811 C   0  0  0  0  0  0  0  0  0  0  0  0
  144.5993  134.5906  136.0853 C   0  0  0  0  0  0  0  0  0  0  0  0
  143.7598  135.2815  136.8313 C   0  0  0  0  0  0  0  0  0  0  0  0
  143.9568  136.3093  137.7454 C   0  0  0  0  0  0  0  0  0  0  0  0
  143.6027  136.5294  138.9220 N   0  0  0  0  0  0  0  0  0  0  0  0
  142.8052  135.7343  139.8109 C   0  0  0  0  0  0  0  0  0  0  0  0
  143.2995  135.9678  141.5372 S   0  0  0  0  0  0  0  0  0  0  0  0
  147.1557  131.0502  135.2475 F   0  0  0  0  0  0  0  0  0  0  0  0
  1  2  2  0
  2  3  1  0
  3  4  1  0
  4  5  2  0
  5  6  1  0
  6  7  1  0
  6  8  2  0
  8  9  1  0
  9 10  1  0
  9 11  2  0
  2 12  1  0
 12 13  1  0
 13 14  1  0
 14 15  1  0
 15 16  1  0
 16 17  1  0
 17 18  1  0
 18 19  1  0
 19 20  2  3
 20 21  1  0
 21 22  2  3
 22 23  1  0
 23 24  1  0
 15 25  1  1
 11  4  1  0
 19 12  1  0
 13 17  2  0
M  END
>  <docking_score>  (1) 
-7.5659999999999998

$$$$

     RDKit          3D

 25 27  0  0  0  0  0  0  0  0999 V2000
  138.4659  130.7987  137.7211 O   0  0  0  0  0  0  0  0  0  0  0  0
  138.7583  131.9336  137.2887 C   0  0  0  0  0  0  0  0  0  0  0  0
  139.5053  132.8080  138.1114 N   0  0  0  0  0  0  0  0  0  0  0  0
  139.9094  132.3946  139.3999 C   0  0  0  0  0  0  0  0  0  0  0  0
  139.0099  132.3940  140.4416 C   0  0  0  0  0  0  0  0  0  0  0  0
  139.4028  131.9868  141.7172 C   0  0  0  0  0  0  0  0  0  0  0  0
  138.3015  131.9680  143.0687 Cl  0  0  0  0  0  0  0  0  0  0  0  0
  140.7014  131.5817  141.9379 C   0  0  0  0  0  0  0  0  0  0  0  0
  141.6120  131.5794  140.8960 C   0  0  0  0  0  0  0  0  0  0  0  0
  142.8956  131.1921  141.0588 F   0  0  0  0  0  0  0  0  0  0  0  0
  141.1954  131.9907  139.6305 C   0  0  0  0  0  0  0  0  0  0  0  0
  138.3702  132.3964  135.9891 N   0  0  0  0  0  0  0  0  0  0  0  0
  139.1893  132.6195  134.8605 C   0  0  0  0  0  0  0  0  0  0  0  0
  140.6354  132.5313  134.4309 C   0  0  0  0  0  0  0  0  0  0  0  0
  140.6527  133.5983  133.3265 C   0  0  1  0  0  0  0  0  0  0  0  0
  139.3344  133.2809  132.6530 C   0  0  0  0  0  0  0  0  0  0  0  0
  138.4586  133.0428  133.8592 C   0  0  0  0  0  0  0  0  0  0  0  0
  137.0425  133.1500  134.2213 C   0  0  0  0  0  0  0  0  0  0  0  0
  137.0085  132.7165  135.6353 C   0  0  0  0  0  0  0  0  0  0  0  0
  135.9833  132.6193  136.4590 C   0  0  0  0  0  0  0  0  0  0  0  0
  134.6286  132.8802  136.2930 C   0  0  0  0  0  0  0  0  0  0  0  0
  133.7481  133.4570  136.9639 N   0  0  0  0  0  0  0  0  0  0  0  0
  133.8353  134.1029  138.2420 C   0  0  0  0  0  0  0  0  0  0  0  0
  132.6332  135.4490  138.3907 S   0  0  0  0  0  0  0  0  0  0  0  0
  140.5096  134.8465  133.9099 F   0  0  0  0  0  0  0  0  0  0  0  0
  1  2  2  0
  2  3  1  0
  3  4  1  0
  4  5  2  0
  5  6  1  0
  6  7  1  0
  6  8  2  0
  8  9  1  0
  9 10  1  0
  9 11  2  0
  2 12  1  0
 12 13  1  0
 13 14  1  0
 14 15  1  0
 15 16  1  0
 16 17  1  0
 17 18  1  0
 18 19  1  0
 19 20  2  3
 20 21  1  0
 21 22  2  3
 22 23  1  0
 23 24  1  0
 15 25  1  1
 11  4  1  0
 19 12  1  0
 13 17  2  0
M  END
>  <docking_score>  (2) 
-7.3959999999999999

$$$$

     RDKit          3D

 25 27  0  0  0  0  0  0  0  0999 V2000
  131.2003  124.7396  139.2317 O   0  0  0  0  0  0  0  0  0  0  0  0
  132.1615  124.5727  140.0121 C   0  0  0  0  0  0  0  0  0  0  0  0
  131.9871  124.8636  141.3848 N   0  0  0  0  0  0  0  0  0  0  0  0
  130.7419  125.3348  141.8556 C   0  0  0  0  0  0  0  0  0  0  0  0
  130.5454  126.6803  142.0689 C   0  0  0  0  0  0  0  0  0  0  0  0
  129.3175  127.1525  142.5340 C   0  0  0  0  0  0  0  0  0  0  0  0
  129.0192  128.8463  142.8196 Cl  0  0  0  0  0  0  0  0  0  0  0  0
  128.2919  126.2663  142.7826 C   0  0  0  0  0  0  0  0  0  0  0  0
  128.4811  124.9119  142.5709 C   0  0  0  0  0  0  0  0  0  0  0  0
  127.5093  124.0021  142.7988 F   0  0  0  0  0  0  0  0  0  0  0  0
  129.7171  124.4646  142.1057 C   0  0  0  0  0  0  0  0  0  0  0  0
  133.4425  124.0971  139.5804 N   0  0  0  0  0  0  0  0  0  0  0  0
  133.9870  122.8018  139.7225 C   0  0  0  0  0  0  0  0  0  0  0  0
  133.6385  121.4436  140.2858 C   0  0  0  0  0  0  0  0  0  0  0  0
  135.0458  120.9120  140.5945 C   0  0  1  0  0  0  0  0  0  0  0  0
  135.7676  121.3802  139.3487 C   0  0  0  0  0  0  0  0  0  0  0  0
  135.1861  122.7648  139.1967 C   0  0  0  0  0  0  0  0  0  0  0  0
  135.5784  124.0606  138.6355 C   0  0  0  0  0  0  0  0  0  0  0  0
  134.4084  124.9262  138.9008 C   0  0  0  0  0  0  0  0  0  0  0  0
  134.2207  126.1976  138.6055 C   0  0  0  0  0  0  0  0  0  0  0  0
  135.0255  127.1328  137.9664 C   0  0  0  0  0  0  0  0  0  0  0  0
  135.2832  128.3426  138.1338 N   0  0  0  0  0  0  0  0  0  0  0  0
  134.7995  129.2620  139.1233 C   0  0  0  0  0  0  0  0  0  0  0  0
  133.9229  130.6540  138.3661 S   0  0  0  0  0  0  0  0  0  0  0  0
  135.5728  121.6336  141.6530 F   0  0  0  0  0  0  0  0  0  0  0  0
  1  2  2  0
  2  3  1  0
  3  4  1  0
  4  5  2  0
  5  6  1  0
  6  7  1  0
  6  8  2  0
  8  9  1  0
  9 10  1  0
  9 11  2  0
  2 12  1  0
 12 13  1  0
 13 14  1  0
 14 15  1  0
 15 16  1  0
 16 17  1  0
 17 18  1  0
 18 19  1  0
 19 20  2  3
 20 21  1  0
 21 22  2  3
 22 23  1  0
 23 24  1  0
 15 25  1  1
 11  4  1  0
 19 12  1  0
 13 17  2  0
M  END
>  <docking_score>  (3) 
-7.2030000000000003

$$$$
