
     RDKit          3D

 15 16  0  0  0  0  0  0  0  0999 V2000
  122.9416  126.7378  141.4486 C   0  0  0  0  0  0  0  0  0  0  0  0
  124.4136  126.8023  141.4050 O   0  0  0  0  0  0  0  0  0  0  0  0
  125.0984  125.9854  142.3136 C   0  0  0  0  0  0  0  0  0  0  0  0
  126.4217  125.9177  142.6060 C   0  0  0  0  0  0  0  0  0  0  0  0
  126.9435  125.0400  143.5436 C   0  0  0  0  0  0  0  0  0  0  0  0
  126.0682  124.1926  144.2119 C   0  0  0  0  0  0  0  0  0  0  0  0
  124.7499  124.2688  143.9119 C   0  0  0  0  0  0  0  0  0  0  0  0
  124.2937  125.1399  142.9926 C   0  0  0  0  0  0  0  0  0  0  0  0
  123.6583  123.4265  144.5074 C   0  0  0  0  0  0  0  0  0  0  0  0
  122.4081  123.5907  143.6042 C   0  0  0  0  0  0  0  0  0  0  0  0
  122.1931  124.9866  143.1174 C   0  0  0  0  0  0  0  0  0  0  0  0
  122.6037  125.2961  141.7204 C   0  0  1  0  0  0  0  0  0  0  0  0
  121.6153  124.5227  140.4563 S   0  0  0  0  0  0  0  0  0  0  0  0
  120.2369  125.6068  140.1046 C   0  0  0  0  0  0  0  0  0  0  0  0
  119.3509  126.2795  139.8851 N   0  0  0  0  0  0  0  0  0  0  0  0
  1  2  1  0
  2  3  1  0
  3  4  2  0
  4  5  1  0
  5  6  2  0
  6  7  1  0
  7  8  2  0
  7  9  1  0
  9 10  1  0
 10 11  1  0
 11 12  1  0
 12 13  1  6
 13 14  1  0
 14 15  3  0
 12  1  1  0
  8  3  1  0
M  END
>  <docking_score>  (1) 
-6.3479999999999999

$$$$

     RDKit          3D

 15 16  0  0  0  0  0  0  0  0999 V2000
  121.9290  126.5467  142.0035 C   0  0  0  0  0  0  0  0  0  0  0  0
  123.3476  126.7916  141.6863 O   0  0  0  0  0  0  0  0  0  0  0  0
  124.2808  125.9856  142.3506 C   0  0  0  0  0  0  0  0  0  0  0  0
  125.6358  126.0522  142.3749 C   0  0  0  0  0  0  0  0  0  0  0  0
  126.4223  125.1638  143.0919 C   0  0  0  0  0  0  0  0  0  0  0  0
  125.7904  124.1612  143.8173 C   0  0  0  0  0  0  0  0  0  0  0  0
  124.4378  124.1045  143.7856 C   0  0  0  0  0  0  0  0  0  0  0  0
  123.7196  124.9925  143.0731 C   0  0  0  0  0  0  0  0  0  0  0  0
  123.5797  123.0872  144.4819 C   0  0  0  0  0  0  0  0  0  0  0  0
  122.1624  123.1793  143.8587 C   0  0  0  0  0  0  0  0  0  0  0  0
  121.7141  124.5768  143.5799 C   0  0  0  0  0  0  0  0  0  0  0  0
  121.7998  125.0563  142.1734 C   0  0  1  0  0  0  0  0  0  0  0  0
  120.6585  124.2849  141.0441 S   0  0  0  0  0  0  0  0  0  0  0  0
  121.6105  123.5905  139.6987 C   0  0  0  0  0  0  0  0  0  0  0  0
  122.2032  123.1600  138.8331 N   0  0  0  0  0  0  0  0  0  0  0  0
  1  2  1  0
  2  3  1  0
  3  4  2  0
  4  5  1  0
  5  6  2  0
  6  7  1  0
  7  8  2  0
  7  9  1  0
  9 10  1  0
 10 11  1  0
 11 12  1  0
 12 13  1  6
 13 14  1  0
 14 15  3  0
 12  1  1  0
  8  3  1  0
M  END
>  <docking_score>  (2) 
-6.1970000000000001

$$$$

     RDKit          3D

 15 16  0  0  0  0  0  0  0  0999 V2000
  139.5497  115.2199  135.4415 C   0  0  0  0  0  0  0  0  0  0  0  0
  138.8678  115.4114  136.7343 O   0  0  0  0  0  0  0  0  0  0  0  0
  137.9586  116.4745  136.8056 C   0  0  0  0  0  0  0  0  0  0  0  0
  137.2856  116.9818  137.8690 C   0  0  0  0  0  0  0  0  0  0  0  0
  136.4094  118.0513  137.7672 C   0  0  0  0  0  0  0  0  0  0  0  0
  136.2144  118.6270  136.5177 C   0  0  0  0  0  0  0  0  0  0  0  0
  136.8912  118.1124  135.4637 C   0  0  0  0  0  0  0  0  0  0  0  0
  137.7317  117.0720  135.6161 C   0  0  0  0  0  0  0  0  0  0  0  0
  136.7975  118.5808  134.0398 C   0  0  0  0  0  0  0  0  0  0  0  0
  137.4294  117.4774  133.1516 C   0  0  0  0  0  0  0  0  0  0  0  0
  138.6613  116.8647  133.7335 C   0  0  0  0  0  0  0  0  0  0  0  0
  138.5222  115.5346  134.3870 C   0  0  1  0  0  0  0  0  0  0  0  0
  138.1697  114.1847  133.2795 S   0  0  0  0  0  0  0  0  0  0  0  0
  139.7063  113.7056  132.4999 C   0  0  0  0  0  0  0  0  0  0  0  0
  140.6723  113.4041  131.9882 N   0  0  0  0  0  0  0  0  0  0  0  0
  1  2  1  0
  2  3  1  0
  3  4  2  0
  4  5  1  0
  5  6  2  0
  6  7  1  0
  7  8  2  0
  7  9  1  0
  9 10  1  0
 10 11  1  0
 11 12  1  0
 12 13  1  6
 13 14  1  0
 14 15  3  0
 12  1  1  0
  8  3  1  0
M  END
>  <docking_score>  (3) 
-5.8620000000000001

$$$$
