
     RDKit          3D

 21 22  0  0  0  0  0  0  0  0999 V2000
  119.0816  123.6396  142.7019 O   0  0  0  0  0  0  0  0  0  0  0  0
  120.1276  123.1022  142.1763 C   0  0  0  0  0  0  0  0  0  0  0  0
  121.4329  123.2250  142.5228 N   0  0  0  0  0  0  0  0  0  0  0  0
  122.4759  124.1534  142.4299 C   0  0  0  0  0  0  0  0  0  0  0  0
  123.5777  124.0210  143.3047 C   0  0  0  0  0  0  0  0  0  0  0  0
  124.6428  124.8646  143.3204 C   0  0  0  0  0  0  0  0  0  0  0  0
  126.0048  124.6780  144.4211 Cl  0  0  0  0  0  0  0  0  0  0  0  0
  124.6751  125.9307  142.4324 C   0  0  0  0  0  0  0  0  0  0  0  0
  123.6104  126.0822  141.5665 C   0  0  0  0  0  0  0  0  0  0  0  0
  123.7142  127.1575  140.7353 F   0  0  0  0  0  0  0  0  0  0  0  0
  122.5246  125.2173  141.5533 C   0  0  0  0  0  0  0  0  0  0  0  0
  119.7738  122.2590  141.0635 N   0  0  0  0  0  0  0  0  0  0  0  0
  120.4570  122.1587  139.8221 C   0  0  0  0  0  0  0  0  0  0  0  0
  119.5196  122.6268  138.6987 C   0  0  0  0  0  0  0  0  0  0  0  0
  118.5491  123.6301  139.2716 C   0  0  1  0  0  0  0  0  0  0  0  0
  119.3180  124.8989  139.5736 C   0  0  0  0  0  0  0  0  0  0  0  0
  120.7628  124.5014  139.7633 C   0  0  0  0  0  0  0  0  0  0  0  0
  121.4898  125.5155  140.5617 C   0  0  0  0  0  0  0  0  0  0  0  0
  121.1993  126.7261  140.3759 O   0  0  0  0  0  0  0  0  0  0  0  0
  117.4202  123.8933  138.3086 C   0  0  0  0  0  0  0  0  0  0  0  0
  118.1213  124.6476  136.8450 Cl  0  0  0  0  0  0  0  0  0  0  0  0
  1  2  2  0
  2  3  1  0
  3  4  1  0
  4  5  2  0
  5  6  1  0
  6  7  1  0
  6  8  2  0
  8  9  1  0
  9 10  1  0
  9 11  2  0
  2 12  1  0
 12 13  1  0
 13 14  1  0
 14 15  1  0
 15 16  1  0
 16 17  1  0
 17 18  1  0
 18 19  2  0
 15 20  1  6
 20 21  1  0
 11  4  1  0
 18 11  1  0
M  END
>  <docking_score>  (1) 
-7.2160000000000002

$$$$

     RDKit          3D

 21 22  0  0  0  0  0  0  0  0999 V2000
  129.1706  134.6637  141.0265 O   0  0  0  0  0  0  0  0  0  0  0  0
  129.0587  135.0337  139.7978 C   0  0  0  0  0  0  0  0  0  0  0  0
  129.4682  134.4122  138.6642 N   0  0  0  0  0  0  0  0  0  0  0  0
  130.6490  134.1560  137.9580 C   0  0  0  0  0  0  0  0  0  0  0  0
  130.6581  133.1011  137.0179 C   0  0  0  0  0  0  0  0  0  0  0  0
  131.7439  132.7472  136.2815 C   0  0  0  0  0  0  0  0  0  0  0  0
  131.7299  131.4277  135.1153 Cl  0  0  0  0  0  0  0  0  0  0  0  0
  132.9300  133.4493  136.4439 C   0  0  0  0  0  0  0  0  0  0  0  0
  132.9473  134.4853  137.3564 C   0  0  0  0  0  0  0  0  0  0  0  0
  134.1508  135.1164  137.4632 F   0  0  0  0  0  0  0  0  0  0  0  0
  131.8353  134.8440  138.1060 C   0  0  0  0  0  0  0  0  0  0  0  0
  128.3864  136.3034  139.6976 N   0  0  0  0  0  0  0  0  0  0  0  0
  128.7256  137.3791  138.8342 C   0  0  0  0  0  0  0  0  0  0  0  0
  129.1266  138.5934  139.6854 C   0  0  0  0  0  0  0  0  0  0  0  0
  129.6882  138.0961  140.9946 C   0  0  1  0  0  0  0  0  0  0  0  0
  131.0354  137.4657  140.7117 C   0  0  0  0  0  0  0  0  0  0  0  0
  131.0252  137.0411  139.2622 C   0  0  0  0  0  0  0  0  0  0  0  0
  132.0235  135.9748  139.0164 C   0  0  0  0  0  0  0  0  0  0  0  0
  133.1179  136.0430  139.6346 O   0  0  0  0  0  0  0  0  0  0  0  0
  129.8119  139.2235  141.9869 C   0  0  0  0  0  0  0  0  0  0  0  0
  130.3272  140.6826  141.0879 Cl  0  0  0  0  0  0  0  0  0  0  0  0
  1  2  2  0
  2  3  1  0
  3  4  1  0
  4  5  2  0
  5  6  1  0
  6  7  1  0
  6  8  2  0
  8  9  1  0
  9 10  1  0
  9 11  2  0
  2 12  1  0
 12 13  1  0
 13 14  1  0
 14 15  1  0
 15 16  1  0
 16 17  1  0
 17 18  1  0
 18 19  2  0
 15 20  1  1
 20 21  1  0
 11  4  1  0
 18 11  1  0
M  END
>  <docking_score>  (2) 
-6.9870000000000001

$$$$

     RDKit          3D

 21 22  0  0  0  0  0  0  0  0999 V2000
  132.3176  133.0182  139.6845 O   0  0  0  0  0  0  0  0  0  0  0  0
  132.4138  133.9785  138.8314 C   0  0  0  0  0  0  0  0  0  0  0  0
  132.1959  135.3071  138.9928 N   0  0  0  0  0  0  0  0  0  0  0  0
  131.1282  136.2019  139.1284 C   0  0  0  0  0  0  0  0  0  0  0  0
  131.3799  137.4729  139.6921 C   0  0  0  0  0  0  0  0  0  0  0  0
  130.4264  138.4212  139.8873 C   0  0  0  0  0  0  0  0  0  0  0  0
  130.7655  139.9990  140.5923 Cl  0  0  0  0  0  0  0  0  0  0  0  0
  129.1161  138.1497  139.5189 C   0  0  0  0  0  0  0  0  0  0  0  0
  128.8439  136.9146  138.9652 C   0  0  0  0  0  0  0  0  0  0  0  0
  127.5338  136.7236  138.6407 F   0  0  0  0  0  0  0  0  0  0  0  0
  129.8213  135.9489  138.7668 C   0  0  0  0  0  0  0  0  0  0  0  0
  132.8195  133.4863  137.5400 N   0  0  0  0  0  0  0  0  0  0  0  0
  132.3134  133.8949  136.2772 C   0  0  0  0  0  0  0  0  0  0  0  0
  131.6328  132.6948  135.6016 C   0  0  0  0  0  0  0  0  0  0  0  0
  131.1185  131.7685  136.6760 C   0  0  1  0  0  0  0  0  0  0  0  0
  129.9427  132.4453  137.3479 C   0  0  0  0  0  0  0  0  0  0  0  0
  130.1112  133.9311  137.1344 C   0  0  0  0  0  0  0  0  0  0  0  0
  129.3628  134.7004  138.1553 C   0  0  0  0  0  0  0  0  0  0  0  0
  128.2477  134.2503  138.5273 O   0  0  0  0  0  0  0  0  0  0  0  0
  130.7198  130.4384  136.0905 C   0  0  0  0  0  0  0  0  0  0  0  0
  130.6644  129.2518  137.4289 Cl  0  0  0  0  0  0  0  0  0  0  0  0
  1  2  2  0
  2  3  1  0
  3  4  1  0
  4  5  2  0
  5  6  1  0
  6  7  1  0
  6  8  2  0
  8  9  1  0
  9 10  1  0
  9 11  2  0
  2 12  1  0
 12 13  1  0
 13 14  1  0
 14 15  1  0
 15 16  1  0
 16 17  1  0
 17 18  1  0
 18 19  2  0
 15 20  1  6
 20 21  1  0
 11  4  1  0
 18 11  1  0
M  END
>  <docking_score>  (3) 
-6.9029999999999996

$$$$
