
     RDKit          3D

 27 30  0  0  0  0  0  0  0  0999 V2000
  133.9190  125.0655  139.6816 O   0  0  0  0  0  0  0  0  0  0  0  0
  134.7638  124.6362  138.8384 C   0  0  0  0  0  0  0  0  0  0  0  0
  135.2796  123.3423  139.0679 N   0  0  0  0  0  0  0  0  0  0  0  0
  134.8876  122.5478  140.1804 C   0  0  1  0  0  0  0  0  0  0  0  0
  133.9927  121.3948  140.1231 C   0  0  0  0  0  0  0  0  0  0  0  0
  135.4720  121.2954  140.6138 C   0  0  1  0  0  0  0  0  0  0  0  0
  136.2988  120.3969  139.7993 C   0  0  0  0  0  0  0  0  0  0  0  0
  137.4837  119.9415  140.3256 C   0  0  0  0  0  0  0  0  0  0  0  0
  138.3297  119.1088  139.6693 C   0  0  0  0  0  0  0  0  0  0  0  0
  137.9746  118.6901  138.3822 C   0  0  0  0  0  0  0  0  0  0  0  0
  136.7818  119.1467  137.8480 C   0  0  0  0  0  0  0  0  0  0  0  0
  135.9436  119.9907  138.5365 C   0  0  0  0  0  0  0  0  0  0  0  0
  135.1358  125.4527  137.7418 N   0  0  0  0  0  0  0  0  0  0  0  0
  134.5209  126.7624  137.6356 C   0  0  0  0  0  0  0  0  0  0  0  0
  135.1292  127.4148  136.3870 C   0  0  0  0  0  0  0  0  0  0  0  0
  133.9900  127.3926  135.3556 C   0  0  0  0  0  0  0  0  0  0  0  0
  133.3053  128.7074  135.4582 C   0  0  0  0  0  0  0  0  0  0  0  0
  133.6858  129.8510  136.0545 N   0  0  0  0  0  0  0  0  0  0  0  0
  132.7308  130.7745  135.8800 C   0  0  0  0  0  0  0  0  0  0  0  0
  132.6926  132.1651  136.3447 C   0  0  0  0  0  0  0  0  0  0  0  0
  133.7378  133.0331  136.1127 C   0  0  0  0  0  0  0  0  0  0  0  0
  133.6917  134.3485  136.5572 C   0  0  0  0  0  0  0  0  0  0  0  0
  132.5799  134.8024  137.2456 C   0  0  0  0  0  0  0  0  0  0  0  0
  131.5437  133.9149  137.4669 C   0  0  0  0  0  0  0  0  0  0  0  0
  131.6292  132.6437  137.0173 N   0  0  0  0  0  0  0  0  0  0  0  0
  131.7601  130.1800  135.1684 N   0  0  0  0  0  0  0  0  0  0  0  0
  132.1351  128.9564  134.9367 O   0  0  0  0  0  0  0  0  0  0  0  0
  1  2  2  0
  2  3  1  0
  4  3  1  6
  4  5  1  0
  5  6  1  0
  6  7  1  6
  7  8  2  0
  8  9  1  0
  9 10  2  0
 10 11  1  0
 11 12  2  0
  2 13  1  0
 13 14  1  0
 14 15  1  0
 15 16  1  0
 16 17  1  0
 17 18  2  0
 18 19  1  0
 19 20  1  0
 20 21  2  0
 21 22  1  0
 22 23  2  0
 23 24  1  0
 24 25  2  0
 19 26  2  0
 26 27  1  0
  6  4  1  0
 12  7  1  0
 27 17  1  0
 25 20  1  0
M  END
>  <docking_score>  (1) 
-8.0419999999999998

$$$$

     RDKit          3D

 27 30  0  0  0  0  0  0  0  0999 V2000
  131.6806  124.3782  139.6025 O   0  0  0  0  0  0  0  0  0  0  0  0
  132.0604  124.7178  140.7641 C   0  0  0  0  0  0  0  0  0  0  0  0
  133.4070  125.1219  140.8924 N   0  0  0  0  0  0  0  0  0  0  0  0
  134.3060  125.1511  139.7908 C   0  0  1  0  0  0  0  0  0  0  0  0
  135.7624  125.2046  139.8887 C   0  0  0  0  0  0  0  0  0  0  0  0
  135.0026  124.0289  139.1965 C   0  0  1  0  0  0  0  0  0  0  0  0
  135.2434  122.7256  139.8273 C   0  0  0  0  0  0  0  0  0  0  0  0
  134.1851  121.8599  139.9647 C   0  0  0  0  0  0  0  0  0  0  0  0
  134.2848  120.6308  140.5297 C   0  0  0  0  0  0  0  0  0  0  0  0
  135.5378  120.2218  140.9996 C   0  0  0  0  0  0  0  0  0  0  0  0
  136.6068  121.0910  140.8633 C   0  0  0  0  0  0  0  0  0  0  0  0
  136.4762  122.3316  140.2863 C   0  0  0  0  0  0  0  0  0  0  0  0
  131.1415  124.6756  141.8419 N   0  0  0  0  0  0  0  0  0  0  0  0
  129.7876  124.2385  141.5582 C   0  0  0  0  0  0  0  0  0  0  0  0
  128.8960  125.4724  141.7521 C   0  0  0  0  0  0  0  0  0  0  0  0
  128.8967  125.7044  143.2714 C   0  0  0  0  0  0  0  0  0  0  0  0
  127.5026  125.4744  143.7316 C   0  0  0  0  0  0  0  0  0  0  0  0
  126.4186  125.0397  143.0650 N   0  0  0  0  0  0  0  0  0  0  0  0
  125.3772  124.9920  143.9067 C   0  0  0  0  0  0  0  0  0  0  0  0
  123.9932  124.5837  143.6438 C   0  0  0  0  0  0  0  0  0  0  0  0
  123.0680  125.4617  143.1213 C   0  0  0  0  0  0  0  0  0  0  0  0
  121.7594  125.0650  142.8760 C   0  0  0  0  0  0  0  0  0  0  0  0
  121.3708  123.7668  143.1588 C   0  0  0  0  0  0  0  0  0  0  0  0
  122.3148  122.9036  143.6820 C   0  0  0  0  0  0  0  0  0  0  0  0
  123.5771  123.3305  143.9053 N   0  0  0  0  0  0  0  0  0  0  0  0
  125.8389  125.4038  145.0980 N   0  0  0  0  0  0  0  0  0  0  0  0
  127.1017  125.6809  144.9563 O   0  0  0  0  0  0  0  0  0  0  0  0
  1  2  2  0
  2  3  1  0
  4  3  1  1
  4  5  1  0
  5  6  1  0
  6  7  1  1
  7  8  2  0
  8  9  1  0
  9 10  2  0
 10 11  1  0
 11 12  2  0
  2 13  1  0
 13 14  1  0
 14 15  1  0
 15 16  1  0
 16 17  1  0
 17 18  2  0
 18 19  1  0
 19 20  1  0
 20 21  2  0
 21 22  1  0
 22 23  2  0
 23 24  1  0
 24 25  2  0
 19 26  2  0
 26 27  1  0
  6  4  1  0
 12  7  1  0
 27 17  1  0
 25 20  1  0
M  END
>  <docking_score>  (2) 
-7.827

$$$$

     RDKit          3D

 27 30  0  0  0  0  0  0  0  0999 V2000
  136.3882  118.9094  136.1315 O   0  0  0  0  0  0  0  0  0  0  0  0
  137.3243  118.0536  136.1159 C   0  0  0  0  0  0  0  0  0  0  0  0
  137.8561  117.7263  134.8498 N   0  0  0  0  0  0  0  0  0  0  0  0
  137.3798  118.3118  133.6445 C   0  0  1  0  0  0  0  0  0  0  0  0
  138.2157  118.7583  132.5329 C   0  0  0  0  0  0  0  0  0  0  0  0
  137.1311  117.6446  132.3831 C   0  0  1  0  0  0  0  0  0  0  0  0
  137.6783  116.3483  131.9656 C   0  0  0  0  0  0  0  0  0  0  0  0
  137.3724  115.8831  130.7093 C   0  0  0  0  0  0  0  0  0  0  0  0
  137.8187  114.7023  130.2130 C   0  0  0  0  0  0  0  0  0  0  0  0
  138.6376  113.9130  131.0281 C   0  0  0  0  0  0  0  0  0  0  0  0
  138.9481  114.3777  132.2948 C   0  0  0  0  0  0  0  0  0  0  0  0
  138.4811  115.5791  132.7717 C   0  0  0  0  0  0  0  0  0  0  0  0
  137.7752  117.4864  137.3335 N   0  0  0  0  0  0  0  0  0  0  0  0
  137.1327  117.9206  138.5596 C   0  0  0  0  0  0  0  0  0  0  0  0
  138.0617  118.9771  139.1723 C   0  0  0  0  0  0  0  0  0  0  0  0
  137.3902  119.3439  140.5052 C   0  0  0  0  0  0  0  0  0  0  0  0
  136.8887  120.7344  140.3538 C   0  0  0  0  0  0  0  0  0  0  0  0
  135.7883  121.2092  139.7441 N   0  0  0  0  0  0  0  0  0  0  0  0
  135.7588  122.5428  139.8702 C   0  0  0  0  0  0  0  0  0  0  0  0
  134.7615  123.4971  139.3743 C   0  0  0  0  0  0  0  0  0  0  0  0
  135.0905  124.4770  138.4625 C   0  0  0  0  0  0  0  0  0  0  0  0
  134.1383  125.3762  137.9990 C   0  0  0  0  0  0  0  0  0  0  0  0
  132.8345  125.2926  138.4564 C   0  0  0  0  0  0  0  0  0  0  0  0
  132.5271  124.3024  139.3703 C   0  0  0  0  0  0  0  0  0  0  0  0
  133.4837  123.4481  139.7951 N   0  0  0  0  0  0  0  0  0  0  0  0
  136.8569  122.8778  140.5658 N   0  0  0  0  0  0  0  0  0  0  0  0
  137.5020  121.7811  140.8351 O   0  0  0  0  0  0  0  0  0  0  0  0
  1  2  2  0
  2  3  1  0
  4  3  1  1
  4  5  1  0
  5  6  1  0
  6  7  1  1
  7  8  2  0
  8  9  1  0
  9 10  2  0
 10 11  1  0
 11 12  2  0
  2 13  1  0
 13 14  1  0
 14 15  1  0
 15 16  1  0
 16 17  1  0
 17 18  2  0
 18 19  1  0
 19 20  1  0
 20 21  2  0
 21 22  1  0
 22 23  2  0
 23 24  1  0
 24 25  2  0
 19 26  2  0
 26 27  1  0
  6  4  1  0
 12  7  1  0
 27 17  1  0
 25 20  1  0
M  END
>  <docking_score>  (3) 
-7.556

$$$$
