
     RDKit          2D

 87 94  0  0  0  0  0  0  0  0999 V2000
   -7.3275   -1.3459    0.0000 C   0  0  0  0  0  0  0  0  0  0  0  0
   -6.3246   -2.4614    0.0000 C   0  0  0  0  0  0  0  0  0  0  0  0
   -7.7864   -2.7976    0.0000 C   0  0  0  0  0  0  0  0  0  0  0  0
   -6.3782   -3.9604    0.0000 C   0  0  0  0  0  0  0  0  0  0  0  0
   -5.3560   -5.0583    0.0000 C   0  0  0  0  0  0  0  0  0  0  0  0
   -3.8570   -5.1118    0.0000 C   0  0  0  0  0  0  0  0  0  0  0  0
   -4.2585   -5.2825    0.0000 C   0  0  0  0  0  0  0  0  0  0  0  0
   -4.8440   -3.9694    0.0000 N   0  0  0  0  0  0  0  0  0  0  0  0
   -5.2452   -3.9641    0.0000 C   0  0  0  0  0  0  0  0  0  0  0  0
   -5.4908   -2.7482    0.0000 C   0  0  0  0  0  0  0  0  0  0  0  0
   -5.7530   -3.1826    0.0000 C   0  0  0  0  0  0  0  0  0  0  0  0
   -5.6565   -2.2754    0.0000 C   0  0  0  0  0  0  0  0  0  0  0  0
   -5.5756   -2.3073    0.0000 C   0  0  0  0  0  0  0  0  0  0  0  0
   -4.9657   -1.2165    0.0000 C   0  0  0  0  0  0  0  0  0  0  0  0
   -8.7733    2.2103    0.0000 O   0  0  0  0  0  0  0  0  0  0  0  0
   -4.8170   -1.5179    0.0000 N   0  0  0  0  0  0  0  0  0  0  0  0
   -3.8663   -0.6333    0.0000 C   0  0  0  0  0  0  0  0  0  0  0  0
   -3.4988   -0.8613    0.0000 C   0  0  0  0  0  0  0  0  0  0  0  0
   -2.6078   -0.3682    0.0000 C   0  0  0  0  0  0  0  0  0  0  0  0
   -1.6025   -1.4815    0.0000 C   0  0  0  0  0  0  0  0  0  0  0  0
   -0.1357   -1.1674    0.0000 C   0  0  0  0  0  0  0  0  0  0  0  0
    0.3257    0.2598    0.0000 N   0  0  0  0  0  0  0  0  0  0  0  0
   -0.6797    1.3731    0.0000 C   0  0  0  0  0  0  0  0  0  0  0  0
   -2.1464    1.0590    0.0000 C   0  0  0  0  0  0  0  0  0  0  0  0
   -3.1518    2.1723    0.0000 C   0  0  0  0  0  0  0  0  0  0  0  0
   -2.6903    3.5995    0.0000 N   0  0  0  0  0  0  0  0  0  0  0  0
    1.2355   -1.7755    0.0000 N   0  0  0  0  0  0  0  0  0  0  0  0
    1.9874   -3.0734    0.0000 C   0  0  0  0  0  0  0  0  0  0  0  0
    1.8328   -4.5655    0.0000 N   0  0  0  0  0  0  0  0  0  0  0  0
    0.8307   -5.6817    0.0000 C   0  0  0  0  0  0  0  0  0  0  0  0
   -0.6360   -5.9957    0.0000 N   0  0  0  0  0  0  0  0  0  0  0  0
   -2.0072   -5.3876    0.0000 C   0  0  0  0  0  0  0  0  0  0  0  0
   -2.7591   -4.0897    0.0000 C   0  0  0  0  0  0  0  0  0  0  0  0
   -2.6084   -2.6350    0.0000 C   0  0  0  0  0  0  0  0  0  0  0  0
   -4.0932   -2.4215    0.0000 C   0  0  0  0  0  0  0  0  0  0  0  0
   -5.2268   -1.4392    0.0000 C   0  0  0  0  0  0  0  0  0  0  0  0
   -5.6494    0.0000    0.0000 N   0  0  0  0  0  0  0  0  0  0  0  0
   -5.2268    1.4392    0.0000 N   0  0  0  0  0  0  0  0  0  0  0  0
   -4.0932    2.4215    0.0000 C   0  0  0  0  0  0  0  0  0  0  0  0
   -2.6084    2.6350    0.0000 C   0  0  0  0  0  0  0  0  0  0  0  0
   -1.2440    2.0119    0.0000 C   0  0  0  0  0  0  0  0  0  0  0  0
   -0.4330    0.7500    0.0000 N   0  0  0  0  0  0  0  0  0  0  0  0
    0.8660    0.0000    0.0000 C   0  0  0  0  0  0  0  0  0  0  0  0
   -0.4330   -0.7500    0.0000 S   0  0  0  0  0  0  0  0  0  0  0  0
   -1.2440   -2.0119    0.0000 S   0  0  0  0  0  0  0  0  0  0  0  0
   -2.0825   -3.2556    0.0000 C   0  0  0  0  0  0  0  0  0  0  0  0
   -3.4029   -3.9673    0.0000 C   0  0  0  0  0  0  0  0  0  0  0  0
   -4.9028   -3.9837    0.0000 N   0  0  0  0  0  3  0  0  0  0  0  0
   -6.2386   -3.3013    0.0000 C   0  0  0  0  0  0  0  0  0  0  0  0
   -7.1042   -2.0763    0.0000 C   0  0  0  0  0  0  0  0  0  0  0  0
   -7.3013   -0.5893    0.0000 C   0  0  0  0  0  0  0  0  0  0  0  0
   -6.7849    0.8190    0.0000 C   0  0  0  0  0  0  0  0  0  0  0  0
   -8.1216    1.4996    0.0000 N   0  0  0  0  0  0  0  0  0  0  0  0
   -8.7923   -0.4248    0.0000 N   0  0  0  0  0  2  0  0  0  0  0  0
   -9.3954    0.9486    0.0000 N   0  0  0  0  0  0  0  0  0  0  0  0
  -10.8863    1.1130    0.0000 C   0  0  0  0  0  0  0  0  0  0  0  0
  -12.3773    1.2775    0.0000 C   0  0  0  0  0  0  0  0  0  0  0  0
  -13.8682    1.4419    0.0000 C   0  0  0  0  0  0  0  0  0  0  0  0
  -15.3592    1.6063    0.0000 C   0  0  0  0  0  0  0  0  0  0  0  0
  -16.8502    1.7708    0.0000 C   0  0  0  0  0  0  0  0  0  0  0  0
  -18.3411    1.9352    0.0000 C   0  0  0  0  0  0  0  0  0  0  0  0
  -19.8321    2.0997    0.0000 N   0  0  0  0  0  0  0  0  0  0  0  0
  -20.4352    3.4731    0.0000 C   0  0  0  0  0  0  0  0  0  0  0  0
  -21.9261    3.6375    0.0000 C   0  0  0  0  0  0  0  0  0  0  0  0
  -22.5292    5.0110    0.0000 C   0  0  0  0  0  0  0  0  0  0  0  0
  -24.0201    5.1754    0.0000 C   0  0  0  0  0  0  0  0  0  0  0  0
  -24.9080    3.9664    0.0000 N   0  0  0  0  0  0  0  0  0  0  0  0
  -26.3990    4.1308    0.0000 C   0  0  0  0  0  0  0  0  0  0  0  0
  -27.2869    2.9219    0.0000 C   0  0  0  0  0  0  0  0  0  0  0  0
  -24.6232    6.5488    0.0000 C   0  0  0  0  0  0  0  0  0  0  0  0
  -25.2263    7.9222    0.0000 C   0  0  0  0  0  0  0  0  0  0  0  0
  -25.8294    9.2957    0.0000 N   0  0  0  0  0  0  0  0  0  0  0  0
  -27.3203    9.4601    0.0000 N   0  0  0  0  0  3  0  0  0  0  0  0
  -27.9234   10.8335    0.0000 S   0  0  0  0  0  0  0  0  0  0  0  0
  -29.4144   10.9980    0.0000 C   0  0  0  0  0  0  0  0  0  0  0  0
  -30.0174   12.3714    0.0000 C   0  0  0  0  0  0  0  0  0  0  0  0
  -31.5084   12.5358    0.0000 C   0  0  0  0  0  0  0  0  0  0  0  0
  -32.1115   13.9093    0.0000 N   0  0  0  0  0  3  0  0  0  0  0  0
  -33.6024   14.0737    0.0000 C   0  0  0  0  0  0  0  0  0  0  0  0
  -34.2055   15.4471    0.0000 C   0  0  0  0  0  0  0  0  0  0  0  0
  -35.6965   15.6116    0.0000 C   0  0  0  0  0  0  0  0  0  0  0  0
  -36.2995   16.9850    0.0000 C   0  0  0  0  0  0  0  0  0  0  0  0
  -36.9026   18.3584    0.0000 C   0  0  0  0  0  0  0  0  0  0  0  0
  -37.5057   19.7319    0.0000 N   0  0  0  0  0  0  0  0  0  0  0  0
  -38.9966   19.8963    0.0000 C   0  0  0  0  0  0  0  0  0  0  0  0
  -40.4876   20.0607    0.0000 C   0  0  0  0  0  0  0  0  0  0  0  0
  -41.9785   20.2252    0.0000 C   0  0  0  0  0  1  0  0  0  0  0  0
  1  2  1  0
  2  3  1  0
  2  4  1  0
  4  5  2  3
  5  6  1  0
  6  7  2  3
  7  8  1  0
  8  9  2  3
  9 10  1  0
 10 11  2  3
 11 12  1  0
 12 13  3  0
 13 14  1  0
 14 15  2  0
 14 16  1  0
 16 17  1  0
 17 18  1  0
 18 19  1  0
 19 20  1  0
 20 21  1  0
 21 22  1  0
 22 23  2  0
 23 24  1  0
 24 25  2  3
 25 26  1  0
 21 27  1  0
 27 28  1  0
 28 29  1  0
 29 30  1  0
 30 31  1  0
 31 32  1  0
 32 33  2  3
 33 34  1  0
 34 35  1  0
 35 36  2  3
 36 37  1  0
 37 38  1  0
 38 39  1  0
 39 40  1  0
 40 41  2  3
 41 42  1  0
 42 43  1  0
 43 44  1  0
 44 45  1  0
 45 46  1  0
 46 47  1  0
 47 48  2  3
 48 49  1  0
 49 50  2  3
 50 51  1  0
 51 52  1  0
 52 53  1  0
 51 54  1  0
 54 55  1  0
 55 56  1  0
 56 57  3  0
 57 58  1  0
 58 59  3  0
 59 60  1  0
 60 61  3  0
 61 62  1  0
 62 63  1  0
 63 64  1  0
 64 65  2  3
 65 66  1  0
 66 67  1  0
 67 68  2  3
 68 69  1  0
 66 70  1  0
 70 71  3  0
 71 72  1  0
 72 73  2  3
 73 74  1  0
 74 75  1  0
 75 76  2  3
 76 77  1  0
 77 78  2  3
 78 79  1  0
 79 80  1  0
 80 81  1  0
 81 82  1  0
 82 83  3  0
 83 84  1  0
 84 85  1  0
 85 86  3  0
 86 87  1  0
 36  2  1  0
 33  6  1  0
 24 19  1  0
 34 20  1  0
 27 23  1  0
 34 45  1  1
 52 38  1  0
 44 42  1  0
M  CHG  4  48   1  54   1  73   1  78   1
M  RAD  5  48   2  54   3  73   2  78   2  87   2
M  END
$$$$
