
     RDKit          3D

 17 17  0  0  0  0  0  0  0  0999 V2000
   -2.3236   -3.1899   -0.3517 S   0  0  0  0  0  0  0  0  0  0  0  0
   -2.4941   -2.1022    1.1184 C   0  0  0  0  0  0  0  0  0  0  0  0
   -2.7076   -0.6980    0.7505 C   0  0  0  0  0  0  0  0  0  0  0  0
   -3.7368   -0.0092    1.1970 C   0  0  0  0  0  0  0  0  0  0  0  0
   -3.7713    1.4095    1.0148 C   0  0  0  0  0  0  0  0  0  0  0  0
   -2.7472    2.0299    0.3793 C   0  0  0  0  0  0  0  0  0  0  0  0
   -2.7158    3.4287    0.1782 O   0  0  0  0  0  0  0  0  0  0  0  0
   -1.6845    1.2750   -0.1013 C   0  0  0  0  0  0  0  0  0  0  0  0
   -1.6358   -0.0722    0.0585 C   0  0  0  0  0  0  0  0  0  0  0  0
   -0.6999   -0.9233   -0.4152 O   0  0  0  0  0  0  0  0  0  0  0  0
    0.4348   -0.3665   -1.1219 C   0  0  0  0  0  0  0  0  0  0  0  0
    1.6437   -0.2841   -0.1044 C   0  0  0  0  0  0  0  0  0  0  0  0
    2.5815   -1.0380   -0.6806 C   0  0  0  0  0  0  0  0  0  0  0  0
    3.8827   -1.2599   -0.1885 C   0  0  0  0  0  0  0  0  0  0  0  0
    4.6647   -0.4013    0.4484 C   0  0  0  0  0  0  0  0  0  0  0  0
    5.2266    0.6630    0.7362 N   0  0  0  0  0  4  0  0  0  0  0  0
    6.0826    1.5384    0.7318 N   0  0  0  0  0  2  0  0  0  0  0  0
  1  2  1  0
  2  3  1  0
  3  4  2  0
  4  5  1  0
  5  6  2  0
  6  7  1  0
  6  8  1  0
  8  9  2  0
  9 10  1  0
 10 11  1  0
 11 12  1  0
 12 13  2  3
 13 14  1  0
 14 15  2  0
 15 16  2  0
 16 17  2  0
  9  3  1  0
M  CHG  2  16   1  17  -1
M  END
$$$$
