
     RDKit          2D

 87 87  0  0  0  0  0  0  0  0999 V2000
    3.0000    0.0000    0.0000 C   0  0  0  0  0  0  0  0  0  0  0  0
    1.5000    0.0000    0.0000 C   0  0  0  0  0  0  0  0  0  0  0  0
    0.7500   -1.2990    0.0000 C   0  0  0  0  0  0  0  0  0  0  0  0
   -0.7500   -1.2990    0.0000 C   0  0  0  0  0  0  0  0  0  0  0  0
   -1.5000   -2.5981    0.0000 O   0  0  0  0  0  0  0  0  0  0  0  0
   -1.5000    0.0000    0.0000 C   0  0  0  0  0  0  0  0  0  0  0  0
   -3.0000    0.0000    0.0000 O   0  0  0  0  0  0  0  0  0  0  0  0
   -0.7500    1.2990    0.0000 C   0  0  0  0  0  0  0  0  0  0  0  0
   -1.5000    2.5981    0.0000 O   0  0  0  0  0  0  0  0  0  0  0  0
    0.7500    1.2990    0.0000 C   0  0  0  0  0  0  0  0  0  0  0  0
    1.5000    2.5981    0.0000 N   0  0  0  0  0  0  0  0  0  0  0  0
    0.7500    3.8971    0.0000 C   0  0  0  0  0  3  0  0  0  0  0  0
    1.5000    5.1962    0.0000 C   0  0  0  0  0  0  0  0  0  0  0  0
    0.7500    6.4952    0.0000 C   0  0  0  0  0  0  0  0  0  0  0  0
    3.0000    5.1962    0.0000 O   0  0  0  0  0  0  0  0  0  0  0  0
    3.7500    6.4952    0.0000 C   0  0  0  0  0  0  0  0  0  0  0  0
    3.0000    7.7942    0.0000 O   0  0  0  0  0  0  0  0  0  0  0  0
    5.2500    6.4952    0.0000 C   0  0  0  0  0  0  0  0  0  0  0  0
    6.0000    7.7942    0.0000 C   0  0  0  0  0  0  0  0  0  0  0  0
    6.0000    5.1962    0.0000 C   0  0  0  0  0  0  0  0  0  0  0  0
    5.2500    3.8971    0.0000 O   0  0  0  0  0  0  0  0  0  0  0  0
    7.5000    5.1962    0.0000 C   0  0  0  0  0  3  0  0  0  0  0  0
    8.2500    3.8971    0.0000 C   0  0  0  0  0  3  0  0  0  0  0  0
    9.7500    3.8971    0.0000 C   0  0  0  0  0  0  0  0  0  0  0  0
   10.5000    2.5981    0.0000 O   0  0  0  0  0  0  0  0  0  0  0  0
   12.0000    2.5981    0.0000 O   0  0  0  0  0  0  0  0  0  0  0  0
   12.7500    1.2990    0.0000 O   0  0  0  0  0  0  0  0  0  0  0  0
   14.2500    1.2990    0.0000 C   0  0  0  0  0  3  0  0  0  0  0  0
   15.0000   -0.0000    0.0000 C   0  0  0  0  0  0  0  0  0  0  0  0
   16.5000   -0.0000    0.0000 O   0  0  0  0  0  0  0  0  0  0  0  0
   14.2500   -1.2990    0.0000 O   0  0  0  0  0  0  0  0  0  0  0  0
   15.0000   -2.5981    0.0000 C   0  0  0  0  0  3  0  0  0  0  0  0
   14.2500   -3.8971    0.0000 C   0  0  0  0  0  0  0  0  0  0  0  0
   12.7500   -3.8971    0.0000 O   0  0  0  0  0  0  0  0  0  0  0  0
   15.0000   -5.1962    0.0000 C   0  0  0  0  0  3  0  0  0  0  0  0
   14.2500   -6.4952    0.0000 C   0  0  0  0  0  0  0  0  0  0  0  0
   15.0000   -7.7942    0.0000 N   0  0  0  0  0  0  0  0  0  0  0  0
   14.2500   -9.0933    0.0000 C   0  0  0  0  0  0  0  0  0  0  0  0
   12.7500   -9.0933    0.0000 O   0  0  0  0  0  0  0  0  0  0  0  0
   15.0000  -10.3923    0.0000 C   0  0  0  0  0  3  0  0  0  0  0  0
   14.2500  -11.6913    0.0000 C   0  0  0  0  0  3  0  0  0  0  0  0
   15.0000  -12.9904    0.0000 C   0  0  0  0  0  0  0  0  0  0  0  0
   15.7500  -14.2894    0.0000 C   0  0  0  0  0  0  0  0  0  0  0  0
   16.2990  -12.2404    0.0000 C   0  0  0  0  0  3  0  0  0  0  0  0
   17.5981  -12.9904    0.0000 C   0  0  0  0  0  0  0  0  0  0  0  0
   18.8971  -12.2404    0.0000 C   0  0  0  0  0  0  0  0  0  0  0  0
   20.1962  -12.9904    0.0000 C   0  0  0  0  0  0  0  0  0  0  0  0
   20.1962  -14.4904    0.0000 O   0  0  0  0  0  0  0  0  0  0  0  0
   21.4952  -12.2404    0.0000 C   0  0  0  0  0  0  0  0  0  0  0  0
   22.7942  -12.9904    0.0000 C   0  0  0  0  0  0  0  0  0  0  0  0
   24.0933  -12.2404    0.0000 O   0  0  0  0  0  0  0  0  0  0  0  0
   25.3923  -12.9904    0.0000 C   0  0  0  0  0  3  0  0  0  0  0  0
   26.6913  -12.2404    0.0000 C   0  0  0  0  0  0  0  0  0  0  0  0
   13.7010  -13.7404    0.0000 O   0  0  0  0  0  0  0  0  0  0  0  0
   13.7010  -15.2404    0.0000 C   0  0  0  0  0  0  0  0  0  0  0  0
   15.0000  -15.9904    0.0000 O   0  0  0  0  0  0  0  0  0  0  0  0
   12.4019  -15.9904    0.0000 C   0  0  0  0  0  3  0  0  0  0  0  0
   12.4019  -17.4904    0.0000 C   0  0  0  0  0  0  0  0  0  0  0  0
   11.1029  -18.2404    0.0000 C   0  0  0  0  0  0  0  0  0  0  0  0
   11.1029  -19.7404    0.0000 C   0  0  0  0  0  0  0  0  0  0  0  0
    9.8038  -20.4904    0.0000 C   0  0  0  0  0  0  0  0  0  0  0  0
    9.8038  -21.9904    0.0000 C   0  0  0  0  0  0  0  0  0  0  0  0
    8.5048  -22.7404    0.0000 C   0  0  0  0  0  3  0  0  0  0  0  0
    8.5048  -24.2404    0.0000 O   0  0  0  0  0  0  0  0  0  0  0  0
    7.2058  -24.9904    0.0000 C   0  0  0  0  0  0  0  0  0  0  0  0
    7.2058  -26.4904    0.0000 N   0  0  0  0  0  0  0  0  0  0  0  0
    5.9067  -24.2404    0.0000 N   0  0  0  0  0  0  0  0  0  0  0  0
    4.6077  -24.9904    0.0000 O   0  0  0  0  0  0  0  0  0  0  0  0
    3.3087  -24.2404    0.0000 C   0  0  0  0  0  0  0  0  0  0  0  0
    2.0096  -24.9904    0.0000 O   0  0  0  0  0  0  0  0  0  0  0  0
    0.7106  -24.2404    0.0000 C   0  0  0  0  0  0  0  0  0  0  0  0
    0.7106  -22.7404    0.0000 O   0  0  0  0  0  0  0  0  0  0  0  0
   -0.5885  -24.9904    0.0000 C   0  0  0  0  0  3  0  0  0  0  0  0
   -1.8875  -24.2404    0.0000 C   0  0  0  0  0  3  0  0  0  0  0  0
   -3.1865  -24.9904    0.0000 C   0  0  0  0  0  3  0  0  0  0  0  0
   -4.4856  -24.2404    0.0000 C   0  0  0  0  0  3  0  0  0  0  0  0
   -5.7846  -24.9904    0.0000 N   0  0  0  0  0  3  0  0  0  0  0  0
   -7.0836  -24.2404    0.0000 C   0  0  0  0  0  3  0  0  0  0  0  0
   -8.3827  -24.9904    0.0000 C   0  0  0  0  0  0  0  0  0  0  0  0
   -9.6817  -24.2404    0.0000 O   0  0  0  0  0  0  0  0  0  0  0  0
  -10.9808  -24.9904    0.0000 N   0  0  0  0  0  0  0  0  0  0  0  0
  -12.2798  -24.2404    0.0000 C   0  0  0  0  0  0  0  0  0  0  0  0
  -13.5788  -24.9904    0.0000 C   0  0  0  0  0  0  0  0  0  0  0  0
  -12.2798  -22.7404    0.0000 C   0  0  0  0  0  3  0  0  0  0  0  0
  -13.5788  -21.9904    0.0000 C   0  0  0  0  0  0  0  0  0  0  0  0
   -5.7846  -26.4904    0.0000 N   0  0  0  0  0  0  0  0  0  0  0  0
   -7.0836  -27.2404    0.0000 C   0  0  0  0  0  2  0  0  0  0  0  0
  2  1  1  1
  2  3  1  0
  3  4  1  0
  4  5  1  6
  4  6  1  0
  6  7  1  6
  6  8  1  0
  8  9  1  1
  8 10  1  0
 10 11  1  1
 11 12  1  0
 12 13  1  0
 13 14  1  0
 13 15  1  0
 15 16  1  0
 16 17  1  1
 16 18  1  0
 18 19  1  1
 18 20  1  0
 20 21  1  1
 20 22  1  0
 22 23  1  0
 23 24  1  0
 24 25  1  0
 25 26  1  0
 26 27  1  0
 27 28  1  0
 28 29  1  0
 29 30  1  6
 29 31  1  0
 31 32  1  0
 32 33  1  0
 33 34  1  1
 33 35  1  0
 35 36  1  0
 36 37  1  0
 37 38  1  0
 38 39  1  1
 38 40  1  0
 40 41  1  0
 41 42  1  0
 42 43  1  0
 42 44  1  0
 44 45  1  0
 45 46  1  0
 46 47  1  0
 47 48  1  1
 47 49  1  0
 49 50  1  0
 50 51  1  0
 51 52  1  0
 52 53  1  0
 42 54  1  0
 54 55  1  0
 55 56  1  1
 55 57  1  0
 57 58  1  0
 58 59  1  0
 59 60  1  0
 60 61  1  0
 61 62  1  0
 62 63  1  0
 63 64  1  0
 64 65  1  0
 65 66  1  6
 65 67  1  0
 67 68  1  0
 68 69  1  0
 69 70  1  0
 70 71  1  0
 71 72  1  1
 71 73  1  0
 73 74  1  0
 74 75  1  0
 75 76  1  0
 76 77  1  0
 77 78  1  0
 78 79  1  0
 79 80  1  0
 80 81  1  0
 81 82  1  0
 82 83  1  6
 82 84  1  0
 84 85  1  0
 77 86  1  0
 86 87  1  0
 10  2  1  0
M  RAD  8  12   2  22   2  23   2  28   2  32   2  35   2  40   2  41   2
M  RAD  8  44   2  52   2  57   2  63   2  73   2  74   2  75   2  76   2
M  CHG  1  77   1
M  RAD  4  77   2  78   2  84   2  87   3
M  END
$$$$
