
     RDKit          3D

 46 52  0  0  0  0  0  0  0  0999 V2000
   -4.1364   -2.7711    1.9499 C   0  0  0  0  0  0  0  0  0  0  0  0
   -4.8127   -3.0654    0.6138 C   0  0  0  0  0  3  0  0  0  0  0  0
   -5.8145   -2.0059    0.2405 C   0  0  0  0  0  0  0  0  0  0  0  0
   -5.1824   -0.9722   -0.6522 C   0  0  0  0  0  3  0  0  0  0  0  0
   -4.7896   -1.5236   -2.0046 C   0  0  0  0  0  0  0  0  0  0  0  0
   -3.9002   -0.6737   -2.6357 O   0  0  0  0  0  0  0  0  0  0  0  0
   -4.2223   -2.9279   -1.8281 C   0  0  0  0  0  0  0  0  0  0  0  0
   -3.7097   -3.0124   -0.4249 C   0  0  2  0  0  0  0  0  0  0  0  0
   -2.6702   -4.0683   -0.2058 C   0  0  0  0  0  0  0  0  0  0  0  0
   -2.2123   -3.9237    1.1142 O   0  0  0  0  0  0  0  0  0  0  0  0
   -2.6576   -2.7312    1.6607 C   0  0  2  0  0  0  0  0  0  0  0  0
   -1.8264   -2.2334    2.8000 C   0  0  0  0  0  0  0  0  0  0  0  0
   -0.6048   -1.5040    2.2516 C   0  0  0  0  0  3  0  0  0  0  0  0
   -0.9116   -0.0325    1.9914 C   0  0  0  0  0  0  0  0  0  0  0  0
   -2.4408    0.0377    1.9311 C   0  0  0  0  0  0  0  0  0  0  0  0
   -0.6237    0.2982    0.5760 C   0  0  1  0  0  0  0  0  0  0  0  0
    0.6245    0.3826    0.1243 O   0  0  0  0  0  0  0  0  0  0  0  0
   -1.5296   -0.7410   -0.0794 C   0  0  0  0  0  3  0  0  0  0  0  0
   -2.7953   -0.0463    0.4461 C   0  0  2  0  0  0  0  0  0  0  0  0
   -2.6388    1.3760   -0.0930 C   0  0  0  0  0  0  0  0  0  0  0  0
   -2.2520    2.3511    0.9819 C   0  0  0  0  0  3  0  0  0  0  0  0
   -2.0532    3.6969    0.3491 C   0  0  0  0  0  3  0  0  0  0  0  0
   -2.9862    3.7988   -0.8315 C   0  0  0  0  0  0  0  0  0  0  0  0
   -4.1727    4.6998   -0.5166 C   0  0  0  0  0  2  0  0  0  0  0  0
   -5.2495    3.7544    0.6064 S   0  0  0  0  0  0  0  0  0  0  0  0
   -5.4453    2.0934   -0.1184 C   0  0  0  0  0  0  0  0  0  0  0  0
   -4.9259    2.0879   -1.8452 S   0  0  0  0  0  0  0  0  0  0  0  0
   -4.1702    0.8897   -2.5364 S   0  0  0  0  0  0  0  0  0  0  0  0
   -2.3490    1.5620   -2.8391 S   0  0  0  0  0  0  0  0  0  0  0  0
   -1.6423    1.4596   -1.2072 C   0  0  1  0  0  0  0  0  0  0  0  0
   -0.4479    2.2859   -0.9521 C   0  0  0  0  0  0  0  0  0  0  0  0
    0.7636    1.6217   -0.4512 C   0  0  0  0  0  3  0  0  0  0  0  0
    2.3054    2.0126   -1.1929 S   0  0  0  0  0  0  0  0  0  0  0  0
    3.0844    0.6794   -2.1129 C   0  0  0  0  0  0  0  0  0  0  0  0
    3.3167   -0.4939   -1.1930 C   0  0  0  0  0  2  0  0  0  0  0  0
    4.6687   -0.7179   -0.4295 S   0  0  0  0  0  0  0  0  0  0  0  0
    5.1512   -0.1445    1.2380 S   0  0  0  0  0  0  0  0  0  0  0  0
    5.9482    1.4596    0.8964 C   0  0  0  0  0  2  0  0  0  0  0  0
    5.6081    1.6990   -0.5651 C   0  0  0  0  0  0  0  0  0  0  0  0
    6.1669    0.5079   -1.2946 C   0  0  1  0  0  0  0  0  0  0  0  0
    7.5303   -0.1923   -0.3226 S   0  0  0  0  0  0  0  0  0  0  0  0
    8.7048    1.0296   -0.0843 O   0  0  0  0  0  0  0  0  0  0  0  0
    9.8758    0.3932    0.3431 C   0  0  0  0  0  2  0  0  0  0  0  0
   10.1449   -0.8350   -0.5169 C   0  0  0  0  0  0  0  0  0  0  0  0
   10.1899   -2.3133    0.5033 S   0  0  0  0  0  0  0  0  0  0  0  0
    9.0897   -3.2473    0.0488 O   0  0  0  0  0  0  0  0  0  0  0  0
  1  2  1  0
  2  3  1  0
  3  4  1  0
  4  5  1  0
  5  6  1  0
  5  7  1  0
  8  7  1  6
  8  9  1  0
  9 10  1  0
 10 11  1  0
 11 12  1  1
 12 13  1  0
 13 14  1  0
 14 15  1  0
 14 16  1  0
 16 17  1  6
 16 18  1  0
 19 18  1  6
 19 20  1  0
 20 21  1  0
 21 22  1  0
 22 23  1  0
 23 24  1  0
 24 25  1  0
 25 26  1  0
 26 27  1  0
 27 28  1  0
 28 29  1  0
 29 30  1  0
 30 31  1  1
 31 32  1  0
 32 33  1  0
 33 34  1  0
 34 35  1  0
 35 36  1  0
 36 37  1  0
 37 38  1  0
 38 39  1  0
 39 40  1  0
 40 41  1  1
 41 42  1  0
 42 43  1  0
 43 44  1  0
 44 45  1  0
 45 46  2  0
 11  1  1  0
  8  2  1  0
 28  6  1  0
 19 15  1  0
 32 17  1  0
 30 20  1  0
 40 36  1  0
M  RAD  8   2   2   4   2  13   2  18   2  21   2  22   2  24   3  32   2
M  RAD  3  35   3  38   3  43   3
M  END
$$$$
