
     RDKit          3D

 27 27  0  0  0  0  0  0  0  0999 V2000
    5.3291    2.0284   -1.1760 O   0  0  0  0  0  0  0  0  0  0  0  0
    5.7612    1.7636   -0.0254 C   0  0  0  0  0  0  0  0  0  0  0  0
    6.4956    2.7456    0.6223 O   0  0  0  0  0  0  0  0  0  0  0  0
    5.5347    0.4765    0.6736 C   0  0  0  0  0  0  0  0  0  0  0  0
    4.7264   -0.4795   -0.1533 C   0  0  0  0  0  0  0  0  0  0  0  0
    4.5359   -1.7606    0.6161 C   0  0  0  0  0  0  0  0  0  0  0  0
    3.7415   -2.7905   -0.1140 C   0  0  0  0  0  0  0  0  0  0  0  0
    2.3576   -2.3697   -0.4749 C   0  0  0  0  0  0  0  0  0  0  0  0
    2.2936   -1.1654   -1.3617 C   0  0  0  0  0  0  0  0  0  0  0  0
    0.8772   -1.1236   -1.9494 C   0  0  0  0  0  3  0  0  0  0  0  0
   -0.1301   -0.8328   -0.8842 C   0  0  1  0  0  0  0  0  0  0  0  0
   -0.7016   -2.0850   -0.2570 C   0  0  0  0  0  0  0  0  0  0  0  0
   -1.7001   -1.7028    0.7973 C   0  0  0  0  0  0  0  0  0  0  0  0
   -2.8153   -0.8956    0.1515 C   0  0  1  0  0  0  0  0  0  0  0  0
   -3.4516   -1.6581   -0.8387 O   0  0  0  0  0  0  0  0  0  0  0  0
   -3.8672   -0.5263    1.1820 C   0  0  0  0  0  0  0  0  0  0  0  0
   -4.8609    0.2257    0.4715 O   0  0  0  0  0  0  0  0  0  0  0  0
   -4.4246    1.3889   -0.1372 C   0  0  0  0  0  0  0  0  0  0  0  0
   -5.2298    2.4265   -0.1809 C   0  0  0  0  0  0  0  0  0  0  0  0
   -6.5475    2.3339    0.4040 C   0  0  0  0  0  0  0  0  0  0  0  0
   -7.3437    3.3952    0.3478 C   0  0  0  0  0  0  0  0  0  0  0  0
   -6.8108    4.8918   -0.4234 Cl  0  0  0  0  0  0  0  0  0  0  0  0
    0.4228    0.0570    0.2096 C   0  0  2  0  0  0  0  0  0  0  0  0
    0.8589    1.2433   -0.3770 O   0  0  0  0  0  0  0  0  0  0  0  0
    1.4763   -0.6228    1.0272 C   0  0  0  0  0  0  0  0  0  0  0  0
    1.5029   -2.1121    0.7428 C   0  0  2  0  0  0  0  0  0  0  0  0
    1.9694   -2.8517    1.8169 O   0  0  0  0  0  0  0  0  0  0  0  0
  1  2  2  0
  2  3  1  0
  2  4  1  0
  4  5  1  0
  5  6  1  0
  6  7  1  0
  7  8  1  0
  8  9  1  0
  9 10  1  0
 10 11  1  0
 11 12  1  1
 12 13  1  0
 13 14  1  0
 14 15  1  6
 14 16  1  0
 16 17  1  0
 17 18  1  0
 18 19  2  3
 19 20  1  0
 20 21  2  3
 21 22  1  0
 11 23  1  0
 23 24  1  6
 23 25  1  0
 25 26  1  0
 26 27  1  1
 26  8  1  0
M  RAD  1  10   2
M  END
$$$$
