
     RDKit          3D

  3  2  0  0  0  0  0  0  0  0999 V2000
   -1.2673   -0.3334   -0.0000 C   0  0  0  0  0  0  0  0  0  0  0  0
   -0.2532    0.5241   -0.0000 C   0  0  0  0  0  0  0  0  0  0  0  0
    1.5205   -0.1907    0.0000 Br  0  0  0  0  0  0  0  0  0  0  0  0
  1  2  2  0
  2  3  1  0
M  END
$$$$
