
     RDKit          3D

 31 31  0  0  0  0  0  0  0  0999 V2000
   -5.4701   -3.5223   -0.9867 C   0  0  0  0  0  0  0  0  0  0  0  0
   -6.6028   -2.5820   -0.6093 C   0  0  0  0  0  0  0  0  0  0  0  0
   -6.2452   -1.8165    0.6267 C   0  0  2  0  0  0  0  0  0  0  0  0
   -7.3359   -0.8776    1.0318 C   0  0  0  0  0  0  0  0  0  0  0  0
   -4.9270   -1.1363    0.4790 C   0  0  0  0  0  0  0  0  0  0  0  0
   -4.0396   -1.4483    1.2855 O   0  0  0  0  0  0  0  0  0  0  0  0
   -4.7299   -0.2085   -0.5152 O   0  0  0  0  0  0  0  0  0  0  0  0
   -3.4851    0.4240   -0.6437 C   0  0  0  0  0  3  0  0  0  0  0  0
   -3.4596    1.6872    0.1861 C   0  0  0  0  0  0  0  0  0  0  0  0
   -2.1111    2.3391    0.0032 C   0  0  2  0  0  0  0  0  0  0  0  0
   -1.8547    2.6917   -1.4447 C   0  0  0  0  0  0  0  0  0  0  0  0
   -1.0567    1.4475    0.5164 C   0  0  0  0  0  0  0  0  0  0  0  0
   -1.2916    0.2458    0.9813 C   0  0  0  0  0  0  0  0  0  0  0  0
   -0.2346   -0.6156    1.4825 C   0  0  0  0  0  0  0  0  0  0  0  0
    0.8029   -0.8740    0.7281 C   0  0  0  0  0  0  0  0  0  0  0  0
    0.9961   -0.3411   -0.6456 C   0  0  2  0  0  0  0  0  0  0  0  0
    1.4743   -1.5222   -1.4969 C   0  0  0  0  0  0  0  0  0  0  0  0
    2.1045    0.6870   -0.6952 C   0  0  2  0  0  0  0  0  0  0  0  0
    2.5345    0.9972    0.7208 C   0  0  0  0  0  0  0  0  0  0  0  0
    3.0233   -0.2911    1.3417 C   0  0  0  0  0  0  0  0  0  0  0  0
    4.2002   -0.7736    0.4882 C   0  0  0  0  0  3  0  0  0  0  0  0
    5.2346    0.3316    0.5572 C   0  0  0  0  0  0  0  0  0  0  0  0
    6.4462   -0.0263   -0.2403 C   0  0  1  0  0  0  0  0  0  0  0  0
    6.9971   -1.1832    0.2604 O   0  0  0  0  0  0  0  0  0  0  0  0
    6.0859   -0.2169   -1.6280 N   0  0  0  0  0  0  0  0  0  0  0  0
    5.1689   -1.3183   -1.7201 C   0  0  0  0  0  0  0  0  0  0  0  0
    4.7821   -1.5533   -3.0444 O   0  0  0  0  0  0  0  0  0  0  0  0
    1.7268    1.8343   -1.3813 O   0  0  0  0  0  0  0  0  0  0  0  0
    0.6004    2.3866   -0.8900 N   0  0  0  0  0  0  0  0  0  0  0  0
    0.3472    1.9957    0.4823 C   0  0  1  0  0  0  0  0  0  0  0  0
    0.3189    3.2395    1.2675 N   0  0  0  0  0  0  0  0  0  0  0  0
  1  2  1  0
  2  3  1  0
  3  4  1  6
  3  5  1  0
  5  6  2  0
  5  7  1  0
  7  8  1  0
  8  9  1  0
  9 10  1  0
 10 11  1  6
 10 12  1  0
 12 13  2  3
 13 14  1  0
 14 15  2  3
 15 16  1  0
 16 17  1  6
 16 18  1  0
 18 19  1  1
 19 20  1  0
 20 21  1  0
 21 22  1  0
 22 23  1  0
 23 24  1  1
 23 25  1  0
 25 26  1  0
 26 27  1  0
 18 28  1  0
 28 29  1  0
 29 30  1  0
 30 31  1  1
 30 12  1  0
M  RAD  2   8   2  21   2
M  END
$$$$
