
     RDKit          2D

 63 63  0  0  0  0  0  0  0  0999 V2000
    6.9271    7.7942    0.0000 C   0  0  0  0  0  0  0  0  0  0  0  0
    6.1771    6.4952    0.0000 O   0  0  0  0  0  0  0  0  0  0  0  0
    6.9271    5.1962    0.0000 C   0  0  0  0  0  3  0  0  0  0  0  0
    6.1771    3.8971    0.0000 O   0  0  0  0  0  0  0  0  0  0  0  0
    6.9271    2.5981    0.0000 C   0  0  0  0  0  0  0  0  0  0  0  0
    8.4271    2.5981    0.0000 C   0  0  0  0  0  0  0  0  0  0  0  0
    6.1771    1.2990    0.0000 C   0  0  0  0  0  3  0  0  0  0  0  0
    4.6771    1.2990    0.0000 C   0  0  0  0  0  0  0  0  0  0  0  0
    3.9271    2.5981    0.0000 N   0  0  0  0  0  0  0  0  0  0  0  0
    4.6771    3.8971    0.0000 C   0  0  0  0  0  2  0  0  0  0  0  0
    3.9271    0.0000    0.0000 C   0  0  0  0  0  0  0  0  0  0  0  0
    2.4271    0.0000    0.0000 C   0  0  0  0  0  0  0  0  0  0  0  0
    1.9635   -1.4266    0.0000 C   0  0  0  0  0  0  0  0  0  0  0  0
    3.1771   -2.3083    0.0000 O   0  0  0  0  0  0  0  0  0  0  0  0
    3.0203   -3.8000    0.0000 C   0  0  0  0  0  0  0  0  0  0  0  0
    1.9635    1.4266    0.0000 C   0  0  0  0  0  0  0  0  0  0  0  0
    0.7500    2.3083    0.0000 O   0  0  0  0  0  0  0  0  0  0  0  0
   -0.7500    2.3083    0.0000 C   0  0  0  0  0  0  0  0  0  0  0  0
   -1.9635    1.4266    0.0000 O   0  0  0  0  0  0  0  0  0  0  0  0
   -2.4271    0.0000    0.0000 C   0  0  0  0  0  0  0  0  0  0  0  0
   -1.9635   -1.4266    0.0000 C   0  0  0  0  0  0  0  0  0  0  0  0
   -0.7500   -2.3083    0.0000 O   0  0  0  0  0  0  0  0  0  0  0  0
    0.7500   -2.3083    0.0000 C   0  0  0  0  0  3  0  0  0  0  0  0
   -3.9271    0.0000    0.0000 C   0  0  0  0  0  3  0  0  0  0  0  0
   -4.6771    1.2990    0.0000 C   0  0  0  0  0  0  0  0  0  0  0  0
   -3.9271    2.5981    0.0000 N   0  0  0  0  0  0  0  0  0  0  0  0
   -4.6771    3.8971    0.0000 C   0  0  0  0  0  3  0  0  0  0  0  0
   -3.9271    5.1962    0.0000 O   0  0  0  0  0  0  0  0  0  0  0  0
   -4.6771    6.4952    0.0000 O   0  0  0  0  0  0  0  0  0  0  0  0
   -3.9271    7.7942    0.0000 C   0  0  0  0  0  0  0  0  0  0  0  0
   -4.6771    9.0933    0.0000 C   0  0  0  0  0  3  0  0  0  0  0  0
   -3.9271   10.3923    0.0000 C   0  0  0  0  0  2  0  0  0  0  0  0
   -6.1771    1.2990    0.0000 C   0  0  0  0  0  0  0  0  0  0  0  0
   -6.9271    2.5981    0.0000 O   0  0  0  0  0  0  0  0  0  0  0  0
   -8.4271    2.5981    0.0000 O   0  0  0  0  0  0  0  0  0  0  0  0
   -9.1771    3.8971    0.0000 C   0  0  0  0  0  0  0  0  0  0  0  0
   -8.4271    5.1962    0.0000 O   0  0  0  0  0  0  0  0  0  0  0  0
   -9.1771    6.4952    0.0000 C   0  0  0  0  0  3  0  0  0  0  0  0
   -8.4271    7.7942    0.0000 O   0  0  0  0  0  0  0  0  0  0  0  0
  -10.6771    3.8971    0.0000 C   0  0  0  0  0  0  0  0  0  0  0  0
  -11.4271    5.1962    0.0000 C   0  0  0  0  0  0  0  0  0  0  0  0
  -12.9271    5.1962    0.0000 C   0  0  0  0  0  0  0  0  0  0  0  0
  -13.6771    6.4952    0.0000 C   0  0  0  0  0  3  0  0  0  0  0  0
  -15.1771    6.4952    0.0000 O   0  0  0  0  0  0  0  0  0  0  0  0
  -15.9271    7.7942    0.0000 C   0  0  0  0  0  3  0  0  0  0  0  0
  -17.4271    7.7942    0.0000 C   0  0  0  0  0  0  0  0  0  0  0  0
  -18.1771    6.4952    0.0000 C   0  0  0  0  0  0  0  0  0  0  0  0
  -18.1771    9.0933    0.0000 C   0  0  0  0  0  2  0  0  0  0  0  0
  -11.4271    2.5981    0.0000 C   0  0  0  0  0  0  0  0  0  0  0  0
  -12.9271    2.5981    0.0000 C   0  0  0  0  0  0  0  0  0  0  0  0
  -13.6771    1.2990    0.0000 C   0  0  0  0  0  3  0  0  0  0  0  0
  -15.1771    1.2990    0.0000 O   0  0  0  0  0  0  0  0  0  0  0  0
  -15.9271   -0.0000    0.0000 O   0  0  0  0  0  0  0  0  0  0  0  0
  -10.6771    1.2990    0.0000 C   0  0  0  0  0  0  0  0  0  0  0  0
   -9.1771    1.2990    0.0000 C   0  0  0  0  0  2  0  0  0  0  0  0
  -11.4271   -0.0000    0.0000 C   0  0  0  0  0  0  0  0  0  0  0  0
  -10.6771   -1.2990    0.0000 C   0  0  0  0  0  0  0  0  0  0  0  0
  -11.4271   -2.5981    0.0000 O   0  0  0  0  0  0  0  0  0  0  0  0
  -10.6771   -3.8971    0.0000 C   0  0  0  0  0  3  0  0  0  0  0  0
  -11.4271   -5.1962    0.0000 C   0  0  0  0  0  2  0  0  0  0  0  0
  -12.9271    0.0000    0.0000 O   0  0  0  0  0  0  0  0  0  0  0  0
  -13.6771   -1.2990    0.0000 C   0  0  0  0  0  3  0  0  0  0  0  0
  -15.1771   -1.2990    0.0000 C   0  0  0  0  0  2  0  0  0  0  0  0
  1  2  1  0
  2  3  1  0
  3  4  1  0
  4  5  1  0
  5  6  1  6
  5  7  1  0
  8  7  1  6
  8  9  1  0
  9 10  1  0
  8 11  1  0
 11 12  1  0
 12 13  1  0
 13 14  1  0
 14 15  1  0
 12 16  1  0
 16 17  1  0
 17 18  1  0
 18 19  1  0
 19 20  1  0
 20 21  1  0
 21 22  1  0
 22 23  1  0
 20 24  1  6
 25 24  1  1
 25 26  1  0
 26 27  1  0
 27 28  1  0
 28 29  1  0
 29 30  1  0
 30 31  1  0
 31 32  1  0
 25 33  1  0
 33 34  1  0
 34 35  1  0
 36 35  1  6
 36 37  1  0
 37 38  1  0
 38 39  1  0
 36 40  1  0
 40 41  1  6
 41 42  1  0
 42 43  1  0
 43 44  1  0
 44 45  1  0
 45 46  1  0
 46 47  1  6
 46 48  1  0
 40 49  1  0
 49 50  1  6
 50 51  1  0
 51 52  1  0
 52 53  1  0
 49 54  1  0
 54 55  1  6
 54 56  1  0
 56 57  1  1
 57 58  1  0
 58 59  1  0
 59 60  1  0
 56 61  1  0
 61 62  1  0
 62 63  1  0
 23 13  1  0
M  RAD  8   3   2   7   2  10   3  23   2  24   2  27   2  31   2  32   3
M  RAD  8  38   2  43   2  45   2  48   3  51   2  55   3  59   2  60   3
M  RAD  2  62   2  63   3
M  END
$$$$
