
     RDKit          2D

 67 67  0  0  0  0  0  0  0  0999 V2000
    6.4598   -7.7942    0.0000 C   0  0  0  0  0  0  0  0  0  0  0  0
    5.7098   -6.4952    0.0000 O   0  0  0  0  0  0  0  0  0  0  0  0
    6.4598   -5.1962    0.0000 C   0  0  0  0  0  3  0  0  0  0  0  0
    5.7098   -3.8971    0.0000 O   0  0  0  0  0  0  0  0  0  0  0  0
    6.4598   -2.5981    0.0000 C   0  0  0  0  0  0  0  0  0  0  0  0
    7.9598   -2.5981    0.0000 C   0  0  0  0  0  0  0  0  0  0  0  0
    5.7098   -1.2990    0.0000 C   0  0  0  0  0  3  0  0  0  0  0  0
    4.2098   -1.2990    0.0000 C   0  0  0  0  0  0  0  0  0  0  0  0
    3.4598   -0.0000    0.0000 C   0  0  0  0  0  3  0  0  0  0  0  0
    1.9598    0.0000    0.0000 C   0  0  0  0  0  0  0  0  0  0  0  0
    1.3858   -1.3858    0.0000 C   0  0  0  0  0  0  0  0  0  0  0  0
    2.4465   -2.4465    0.0000 C   0  0  0  0  0  0  0  0  0  0  0  0
   -0.0000   -1.9598    0.0000 O   0  0  0  0  0  0  0  0  0  0  0  0
   -1.3858   -1.3858    0.0000 C   0  0  0  0  0  0  0  0  0  0  0  0
   -1.9598    0.0000    0.0000 C   0  0  0  0  0  0  0  0  0  0  0  0
   -1.3858    1.3858    0.0000 C   0  0  0  0  0  0  0  0  0  0  0  0
   -2.4465    2.4465    0.0000 O   0  0  0  0  0  0  0  0  0  0  0  0
    0.0000    1.9598    0.0000 C   0  0  0  0  0  0  0  0  0  0  0  0
    0.0000    3.4598    0.0000 O   0  0  0  0  0  0  0  0  0  0  0  0
    1.3858    1.3858    0.0000 C   0  0  0  0  0  0  0  0  0  0  0  0
    2.4465    2.4465    0.0000 O   0  0  0  0  0  0  0  0  0  0  0  0
    3.8954    2.0583    0.0000 C   0  0  0  0  0  3  0  0  0  0  0  0
    4.9560    3.1189    0.0000 O   0  0  0  0  0  0  0  0  0  0  0  0
    3.4598   -2.5981    0.0000 C   0  0  0  0  0  3  0  0  0  0  0  0
    4.2098   -3.8971    0.0000 O   0  0  0  0  0  0  0  0  0  0  0  0
    3.4598   -5.1962    0.0000 O   0  0  0  0  0  0  0  0  0  0  0  0
    4.2098   -6.4952    0.0000 C   0  0  0  0  0  0  0  0  0  0  0  0
    3.4598   -7.7942    0.0000 C   0  0  0  0  0  3  0  0  0  0  0  0
    4.2098   -9.0933    0.0000 C   0  0  0  0  0  0  0  0  0  0  0  0
    5.7098   -9.0933    0.0000 C   0  0  0  0  0  0  0  0  0  0  0  0
    6.4598  -10.3923    0.0000 O   0  0  0  0  0  0  0  0  0  0  0  0
    7.9598  -10.3923    0.0000 C   0  0  0  0  0  0  0  0  0  0  0  0
    8.7098  -11.6913    0.0000 C   0  0  0  0  0  2  0  0  0  0  0  0
    3.4598  -10.3923    0.0000 C   0  0  0  0  0  0  0  0  0  0  0  0
    4.2098  -11.6913    0.0000 C   0  0  0  0  0  2  0  0  0  0  0  0
    1.9598  -10.3923    0.0000 C   0  0  0  0  0  0  0  0  0  0  0  0
    1.2098  -11.6913    0.0000 N   0  0  0  0  0  1  0  0  0  0  0  0
    1.2098   -9.0933    0.0000 O   0  0  0  0  0  0  0  0  0  0  0  0
   -0.2902   -9.0933    0.0000 C   0  0  0  0  0  3  0  0  0  0  0  0
   -1.0402   -7.7942    0.0000 O   0  0  0  0  0  0  0  0  0  0  0  0
   -2.5402   -7.7942    0.0000 C   0  0  0  0  0  3  0  0  0  0  0  0
   -3.2902   -6.4952    0.0000 C   0  0  0  0  0  0  0  0  0  0  0  0
   -2.5402   -5.1962    0.0000 O   0  0  0  0  0  0  0  0  0  0  0  0
   -4.7902   -6.4952    0.0000 C   0  0  0  0  0  0  0  0  0  0  0  0
   -5.5402   -5.1962    0.0000 C   0  0  0  0  0  0  0  0  0  0  0  0
   -7.0402   -5.1962    0.0000 C   0  0  0  0  0  0  0  0  0  0  0  0
   -7.7902   -3.8971    0.0000 O   0  0  0  0  0  0  0  0  0  0  0  0
   -9.2902   -3.8971    0.0000 C   0  0  0  0  0  3  0  0  0  0  0  0
  -10.0402   -2.5981    0.0000 C   0  0  0  0  0  0  0  0  0  0  0  0
  -11.5402   -2.5981    0.0000 O   0  0  0  0  0  1  0  0  0  0  0  0
   -7.7902   -6.4952    0.0000 O   0  0  0  0  0  0  0  0  0  0  0  0
   -9.2902   -6.4952    0.0000 C   0  0  0  0  0  0  0  0  0  0  0  0
  -10.0402   -7.7942    0.0000 C   0  0  0  0  0  3  0  0  0  0  0  0
  -11.5402   -7.7942    0.0000 C   0  0  0  0  0  0  0  0  0  0  0  0
  -12.2902   -9.0933    0.0000 O   0  0  0  0  0  0  0  0  0  0  0  0
  -13.7902   -9.0933    0.0000 C   0  0  0  0  0  0  0  0  0  0  0  0
  -14.5402  -10.3923    0.0000 C   0  0  0  0  0  0  0  0  0  0  0  0
  -14.5402   -7.7942    0.0000 C   0  0  0  0  0  3  0  0  0  0  0  0
  -16.0402   -7.7942    0.0000 C   0  0  0  0  0  0  0  0  0  0  0  0
  -16.7902   -6.4952    0.0000 C   0  0  0  0  0  3  0  0  0  0  0  0
  -18.2902   -6.4952    0.0000 C   0  0  0  0  0  0  0  0  0  0  0  0
  -19.0402   -5.1962    0.0000 C   0  0  0  0  0  0  0  0  0  0  0  0
  -18.2902   -3.8971    0.0000 N   0  0  0  0  0  2  0  0  0  0  0  0
  -19.0402   -2.5981    0.0000 F   0  0  0  0  0  0  0  0  0  0  0  0
  -20.5402   -5.1962    0.0000 C   0  0  0  0  0  0  0  0  0  0  0  0
  -21.2902   -3.8971    0.0000 C   0  0  0  0  0  0  0  0  0  0  0  0
  -22.7902   -3.8971    0.0000 F   0  0  0  0  0  0  0  0  0  0  0  0
  1  2  1  0
  2  3  1  0
  3  4  1  0
  4  5  1  0
  5  6  1  1
  5  7  1  0
  8  7  1  6
  8  9  1  0
  9 10  1  0
 10 11  1  0
 11 12  1  0
 11 13  1  0
 13 14  1  0
 14 15  1  0
 15 16  1  0
 16 17  1  1
 16 18  1  0
 18 19  1  6
 18 20  1  0
 20 21  1  1
 21 22  1  0
 22 23  1  0
  8 24  1  0
 24 25  1  0
 25 26  1  0
 26 27  1  0
 27 28  1  0
 29 28  1  6
 29 30  1  0
 30 31  1  0
 31 32  1  0
 32 33  1  0
 29 34  1  0
 34 35  1  0
 34 36  1  0
 36 37  1  6
 36 38  1  0
 38 39  1  0
 39 40  1  0
 40 41  1  0
 41 42  1  0
 42 43  1  1
 42 44  1  0
 44 45  1  0
 46 45  1  1
 46 47  1  0
 47 48  1  0
 48 49  1  0
 49 50  1  0
 46 51  1  0
 51 52  1  0
 52 53  1  0
 53 54  1  0
 54 55  1  0
 55 56  1  0
 56 57  1  6
 56 58  1  0
 58 59  1  0
 59 60  1  0
 60 61  1  0
 62 61  1  1
 62 63  1  0
 63 64  1  0
 62 65  1  0
 65 66  1  0
 66 67  1  0
 20 10  1  0
M  RAD  8   3   2   7   2   9   2  22   2  24   2  28   2  33   3  35   3
M  RAD  8  37   2  39   2  41   2  48   2  53   2  58   2  60   2  63   3
M  CHG  3  37   1  50  -1  63   1
M  END
$$$$
