
     RDKit          3D

 21 20  0  0  0  0  0  0  0  0999 V2000
   -1.3443    1.3065    0.6156 O   0  0  0  0  0  0  0  0  0  0  0  0
   -1.4419    0.2749   -0.1051 C   0  0  0  0  0  0  0  0  0  0  0  0
   -0.3144   -0.2352   -0.6994 O   0  0  0  0  0  0  0  0  0  0  0  0
    0.9518    0.3985   -0.5009 C   0  0  0  0  0  0  0  0  0  0  0  0
    2.0452   -0.3132   -1.2330 C   0  0  0  0  0  0  0  0  0  0  0  0
    2.1911   -1.7573   -0.7733 C   0  0  0  0  0  0  0  0  0  0  0  0
    3.3162   -2.3746   -1.5742 C   0  0  0  0  0  0  0  0  0  0  0  0
    4.5820   -1.5879   -1.3043 C   0  0  0  0  0  0  0  0  0  0  0  0
    4.8669   -1.6709    0.1753 C   0  0  0  0  0  0  0  0  0  0  0  0
    6.1134   -0.9190    0.5651 C   0  0  0  0  0  0  0  0  0  0  0  0
    6.2870   -1.0787    2.0620 C   0  0  0  0  0  0  0  0  0  0  0  0
    7.4915   -0.3805    2.5940 C   0  0  0  0  0  0  0  0  0  0  0  0
    7.4942    1.0960    2.3620 C   0  0  0  0  0  0  0  0  0  0  0  0
   -2.7828   -0.3493   -0.2818 C   0  0  0  0  0  0  0  0  0  0  0  0
   -3.8051    0.3925    0.4575 C   0  0  0  0  0  0  0  0  0  0  0  0
   -4.8624    0.9641   -0.1089 C   0  0  0  0  0  0  0  0  0  0  0  0
   -5.1061    0.8978   -1.5856 C   0  0  0  0  0  0  0  0  0  0  0  0
   -5.1462    2.7119   -2.3019 Br  0  0  0  0  0  0  0  0  0  0  0  0
   -5.7724    1.6426    0.6728 O   0  0  0  0  0  0  0  0  0  0  0  0
   -6.8249    0.9464    1.3449 C   0  0  0  0  0  0  0  0  0  0  0  0
   -7.9390    0.0354    0.0243 Br  0  0  0  0  0  0  0  0  0  0  0  0
  1  2  2  0
  2  3  1  0
  3  4  1  0
  4  5  1  0
  5  6  1  0
  6  7  1  0
  7  8  1  0
  8  9  1  0
  9 10  1  0
 10 11  1  0
 11 12  1  0
 12 13  1  0
  2 14  1  0
 14 15  1  0
 15 16  2  3
 16 17  1  0
 17 18  1  0
 16 19  1  0
 19 20  1  0
 20 21  1  0
M  END
$$$$
