
     RDKit          3D

 24 23  0  0  0  0  0  0  0  0999 V2000
   -2.3290    1.0130   -3.5178 C   0  0  0  0  0  0  0  0  0  0  0  0
   -0.8899    0.7848   -3.2570 C   0  0  0  0  0  0  0  0  0  0  0  0
   -0.4654   -0.1684   -2.4401 C   0  0  0  0  0  0  0  0  0  0  0  0
    0.9531   -0.3890   -2.1866 C   0  0  0  0  0  0  0  0  0  0  0  0
    1.3590   -1.3452   -1.3681 C   0  0  0  0  0  0  0  0  0  0  0  0
    2.8217   -1.4997   -1.1677 C   0  0  1  0  0  0  0  0  0  0  0  0
    3.5072   -1.6710   -2.3580 O   0  0  0  0  0  0  0  0  0  0  0  0
    3.3233   -0.1895   -0.5551 C   0  0  0  0  0  0  0  0  0  0  0  0
    4.8104   -0.3006   -0.3330 C   0  0  1  0  0  0  0  0  0  0  0  0
    5.4325   -0.5284   -1.5613 O   0  0  0  0  0  0  0  0  0  0  0  0
    5.3079    1.0096    0.2093 C   0  0  0  0  0  0  0  0  0  0  0  0
    4.6510    1.3349    1.4806 C   0  0  0  0  0  0  0  0  0  0  0  0
    3.8008    0.5432    1.9535 O   0  0  0  0  0  0  0  0  0  0  0  0
    4.9160    2.4813    2.2033 O   0  0  0  0  0  1  0  0  0  0  0  0
   -1.4595   -1.0239   -1.7739 C   0  0  0  0  0  0  0  0  0  0  0  0
   -1.2710   -0.8398   -0.2955 C   0  0  0  0  0  0  0  0  0  0  0  0
   -2.3066   -0.3764    0.3807 C   0  0  0  0  0  0  0  0  0  0  0  0
   -2.1500   -0.1887    1.8158 C   0  0  0  0  0  0  0  0  0  0  0  0
   -3.1580    0.2723    2.5336 C   0  0  0  0  0  0  0  0  0  0  0  0
   -3.0172    0.4481    3.8660 F   0  0  0  0  0  0  0  0  0  0  0  0
   -4.4201    0.5942    1.9099 C   0  0  0  0  0  0  0  0  0  0  0  0
   -5.4634    1.0587    2.5776 C   0  0  0  0  0  0  0  0  0  0  0  0
   -7.0097    1.4546    1.8221 S   0  0  0  0  0  0  0  0  0  0  0  0
   -6.9431    1.2168    0.0616 N   0  0  0  0  0  0  0  0  0  0  0  0
  1  2  1  0
  2  3  2  3
  3  4  1  0
  4  5  2  3
  5  6  1  0
  6  7  1  6
  6  8  1  0
  8  9  1  0
  9 10  1  6
  9 11  1  0
 11 12  1  0
 12 13  2  0
 12 14  1  0
  3 15  1  0
 15 16  1  0
 16 17  2  3
 17 18  1  0
 18 19  2  3
 19 20  1  0
 19 21  1  0
 21 22  2  3
 22 23  1  0
 23 24  1  0
M  CHG  1  14  -1
M  END
$$$$
