
     RDKit          3D

 11 11  0  0  0  0  0  0  0  0999 V2000
   -0.2862   -2.9442    2.0750 Cl  0  0  0  0  0  0  0  0  0  0  0  0
   -1.0820   -1.9504    0.8796 C   0  0  0  0  0  0  0  0  0  0  0  0
   -2.2638   -2.2113    0.3181 C   0  0  0  0  0  0  0  0  0  0  0  0
   -2.5851   -1.1488   -0.6267 C   0  0  0  0  0  0  0  0  0  0  0  0
   -1.6033   -0.2564   -0.6324 C   0  0  0  0  0  0  0  0  0  0  0  0
   -0.5896   -0.7014    0.3167 C   0  0  0  0  0  0  0  0  0  0  0  0
    0.5642   -0.1160    0.6338 C   0  0  0  0  0  0  0  0  0  0  0  0
    0.9861    1.1403    0.0214 C   0  0  0  0  0  0  0  0  0  0  0  0
    2.1365    1.6759    0.3712 C   0  0  0  0  0  0  0  0  0  0  0  0
    2.6583    2.9167   -0.1675 C   0  0  0  0  0  0  0  0  0  0  0  0
    2.0650    3.5956   -1.0154 O   0  0  0  0  0  0  0  0  0  0  0  0
  1  2  1  0
  2  3  2  0
  3  4  1  0
  4  5  2  0
  5  6  1  0
  6  7  2  0
  7  8  1  0
  8  9  2  0
  9 10  1  0
 10 11  2  0
  6  2  1  0
M  END
$$$$
