
     RDKit          3D

 16 16  0  0  0  0  0  0  0  0999 V2000
   -2.9599   -1.2147    0.7843 C   0  0  0  0  0  0  0  0  0  0  0  0
   -1.9391   -0.1310    0.5045 C   0  0  0  0  0  0  0  0  0  0  0  0
   -1.1950   -0.5418   -0.6301 O   0  0  0  0  0  0  0  0  0  0  0  0
   -0.9330   -1.9021   -0.7340 C   0  0  0  0  0  0  0  0  0  0  0  0
    0.1798   -2.4806   -0.3944 C   0  0  0  0  0  0  0  0  0  0  0  0
    1.2945   -1.8676    0.1247 O   0  0  0  0  0  0  0  0  0  0  0  0
    2.5248   -2.0624   -0.5743 C   0  0  0  0  0  0  0  0  0  0  0  0
    3.5994   -1.3576    0.2440 C   0  0  0  0  0  0  0  0  0  0  0  0
    3.5070    0.1212   -0.1037 C   0  0  0  0  0  0  0  0  0  0  0  0
    2.4603    0.7159    0.8161 C   0  0  0  0  0  3  0  0  0  0  0  0
    1.8738    1.9207    0.1021 C   0  0  0  0  0  0  0  0  0  0  0  0
    0.4475    2.0087    0.5504 C   0  0  0  0  0  0  0  0  0  0  0  0
   -0.4631    2.0824   -0.3986 C   0  0  0  0  0  0  0  0  0  0  0  0
   -1.8470    2.1695   -0.0812 N   0  0  0  0  0  0  0  0  0  0  0  0
   -2.5583    1.1930    0.3319 C   0  0  0  0  0  0  0  0  0  0  0  0
   -3.9918    1.3463    0.6453 C   0  0  0  0  0  0  0  0  0  0  0  0
  1  2  1  0
  2  3  1  0
  3  4  1  0
  4  5  2  3
  5  6  1  0
  6  7  1  0
  7  8  1  0
  8  9  1  0
  9 10  1  0
 10 11  1  0
 11 12  1  0
 12 13  2  3
 13 14  1  0
 14 15  2  3
 15 16  1  0
 15  2  1  0
M  RAD  1  10   2
M  END
$$$$
