
     RDKit          3D

 23 27  0  0  0  0  0  0  0  0999 V2000
   -1.0366   -0.1058    0.8264 C   0  0  0  0  0  0  0  0  0  0  0  0
    0.3616   -0.4360    1.0952 C   0  0  0  0  0  3  0  0  0  0  0  0
    0.9847   -0.0308    2.3365 C   0  0  0  0  0  0  0  0  0  0  0  0
    2.3560    0.5325    2.1001 C   0  0  0  0  0  0  0  0  0  0  0  0
    3.0514   -0.0507    0.9425 C   0  0  0  0  0  0  0  0  0  0  0  0
    4.2656   -0.2599    0.9235 O   0  0  0  0  0  0  0  0  0  0  0  0
    2.3336   -0.4454   -0.3289 C   0  0  0  0  0  0  0  0  0  0  0  0
    1.1153   -1.1915    0.1067 C   0  0  2  0  0  0  0  0  0  0  0  0
    0.2541   -1.7032   -0.9737 C   0  0  0  0  0  0  0  0  0  0  0  0
   -1.0070   -2.2603   -0.4697 C   0  0  0  0  0  0  0  0  0  0  0  0
   -1.7762   -1.3967    0.4778 C   0  0  2  0  0  0  0  0  0  0  0  0
   -3.1347   -1.1664   -0.0760 C   0  0  0  0  0  0  0  0  0  0  0  0
   -3.9490   -0.1392    0.6287 C   0  0  0  0  0  0  0  0  0  0  0  0
   -3.7318    1.1853   -0.1161 C   0  0  0  0  0  0  0  0  0  0  0  0
   -2.4053    1.7104    0.3105 C   0  0  0  0  0  0  0  0  0  0  0  0
   -1.2860    0.8839   -0.1673 N   0  0  0  0  0  4  0  0  0  0  0  0
   -1.6695    0.1684   -1.3934 C   0  0  0  0  0  0  0  0  0  0  0  0
   -0.5308    0.0101   -2.3293 C   0  0  0  0  0  0  0  0  0  0  0  0
    0.2595   -1.0781   -2.1557 O   0  0  0  0  0  0  0  0  0  0  0  0
   -0.2234    1.7659   -0.4675 C   0  0  0  0  0  2  0  0  0  0  0  0
    1.0099    1.4485    0.0040 O   0  0  0  0  0  0  0  0  0  0  0  0
    1.8615    0.8757   -0.9345 C   0  0  0  0  0  0  0  0  0  0  0  0
    2.8970    1.6835   -1.3187 O   0  0  0  0  0  0  0  0  0  0  0  0
  1  2  1  0
  2  3  1  0
  3  4  1  0
  4  5  1  0
  5  6  2  0
  5  7  1  0
  8  7  1  6
  8  9  1  0
  9 10  1  0
 10 11  1  0
 11 12  1  6
 12 13  1  0
 13 14  1  0
 14 15  1  0
 15 16  1  0
 16 17  1  0
 17 18  1  0
 18 19  1  0
 16 20  1  0
 20 21  1  0
 21 22  1  0
 22 23  1  0
 11  1  1  0
 16  1  1  0
  8  2  1  0
 22  7  1  0
 19  9  1  0
M  CHG  1  16   1
M  RAD  2   2   2  20   3
M  END
$$$$
