
     RDKit          3D

 25 25  0  0  0  0  0  0  0  0999 V2000
   -4.1935    0.6647    3.4417 C   0  0  0  0  0  0  0  0  0  0  0  0
   -3.6557   -0.1707    2.4507 O   0  0  0  0  0  0  0  0  0  0  0  0
   -4.0019    0.3333    1.2078 C   0  0  0  0  0  3  0  0  0  0  0  0
   -4.8246   -0.5970    0.5725 O   0  0  0  0  0  0  0  0  0  0  0  0
   -4.2629   -0.9584   -0.6517 C   0  0  2  0  0  0  0  0  0  0  0  0
   -5.3095   -1.7312   -1.4180 C   0  0  0  0  0  0  0  0  0  0  0  0
   -3.0020   -1.7645   -0.4854 C   0  0  0  0  0  3  0  0  0  0  0  0
   -1.8301   -1.1951   -1.2361 C   0  0  1  0  0  0  0  0  0  0  0  0
   -2.2021   -0.2298   -2.2379 N   0  0  0  0  0  0  0  0  0  0  0  0
   -1.2538    0.8569   -2.2848 C   0  0  0  0  0  3  0  0  0  0  0  0
   -1.8623    2.1023   -1.7034 C   0  0  0  0  0  0  0  0  0  0  0  0
   -2.6497    2.1795   -0.5656 C   0  0  0  0  0  0  0  0  0  0  0  0
   -3.2300    2.2314   -1.9224 O   0  0  0  0  0  0  0  0  0  0  0  0
   -0.9278   -0.6167   -0.2448 N   0  0  0  0  0  2  0  0  0  0  0  0
    0.3390   -0.7249   -0.7170 O   0  0  0  0  0  0  0  0  0  0  0  0
    1.2843   -0.5789    0.3119 C   0  0  0  0  0  3  0  0  0  0  0  0
    2.3026    0.4297   -0.2075 C   0  0  0  0  0  0  0  0  0  0  0  0
    2.7872    0.0277   -1.4621 O   0  0  0  0  0  0  0  0  0  0  0  0
    3.9428    0.5859   -1.7092 O   0  0  0  0  0  0  0  0  0  0  0  0
    4.9604   -0.0017   -1.0191 N   0  0  0  0  0  2  0  0  0  0  0  0
    4.9789    0.4166    0.2735 O   0  0  0  0  0  0  0  0  0  0  0  0
    4.5849   -0.5891    1.0390 O   0  0  0  0  0  0  0  0  0  0  0  0
    4.9126   -0.2493    2.3477 C   0  0  0  0  0  0  0  0  0  0  0  0
    6.3399    0.2429    2.4456 C   0  0  0  0  0  3  0  0  0  0  0  0
    6.7735    0.1690    3.7745 O   0  0  0  0  0  0  0  0  0  0  0  0
  1  2  1  0
  2  3  1  0
  3  4  1  0
  4  5  1  0
  5  6  1  1
  5  7  1  0
  8  7  1  1
  8  9  1  0
  9 10  1  0
 10 11  1  0
 11 12  1  0
 11 13  1  0
  8 14  1  0
 14 15  1  0
 15 16  1  0
 16 17  1  0
 17 18  1  0
 18 19  1  0
 19 20  1  0
 20 21  1  0
 21 22  1  0
 22 23  1  0
 23 24  1  0
 24 25  1  0
 13 12  1  0
M  CHG  2  14   1  20   1
M  RAD  7   3   2   7   2  10   2  14   3  16   2  20   3  24   2
M  END
$$$$
