
     RDKit          3D

 25 25  0  0  0  0  0  0  0  0999 V2000
   -0.8010   -3.1389   -2.3071 C   0  0  0  0  0  0  0  0  0  0  0  0
   -1.6855   -2.8532   -1.1329 C   0  0  0  0  0  0  0  0  0  0  0  0
   -2.0223   -4.1155   -0.3735 C   0  0  0  0  0  0  0  0  0  0  0  0
   -1.0095   -1.8538   -0.2488 C   0  0  0  0  0  0  0  0  0  0  0  0
   -1.5908   -0.6994   -0.0918 C   0  0  0  0  0  0  0  0  0  0  0  0
   -1.1048    0.3968    0.7159 C   0  0  0  0  0  0  0  0  0  0  0  0
    0.0753    0.2926    1.4172 O   0  0  0  0  0  0  0  0  0  0  0  0
    1.2697   -0.1647    0.8855 C   0  0  0  0  0  0  0  0  0  0  0  0
    1.6188    0.1624   -0.3518 C   0  0  0  0  0  0  0  0  0  0  0  0
    0.4029    1.2754   -1.3309 Br  0  0  0  0  0  0  0  0  0  0  0  0
    2.8388   -0.2621   -0.9956 C   0  0  0  0  0  0  0  0  0  0  0  0
    3.6821   -1.0288   -0.3298 C   0  0  0  0  0  0  0  0  0  0  0  0
    4.9406   -1.4744   -0.9757 C   0  0  0  0  0  0  0  0  0  0  0  0
    6.0979   -0.9435   -0.1268 C   0  0  0  0  0  0  0  0  0  0  0  0
    6.0369    0.4562   -0.0785 O   0  0  0  0  0  0  0  0  0  0  0  0
    3.3431   -1.3838    0.9594 O   0  0  0  0  0  0  0  0  0  0  0  0
    2.1996   -1.0262    1.6589 C   0  0  0  0  0  0  0  0  0  0  0  0
    1.3112   -2.5677    2.4087 Br  0  0  0  0  0  0  0  0  0  0  0  0
   -1.8035    1.5030    0.7764 C   0  0  0  0  0  0  0  0  0  0  0  0
   -3.0501    1.6524    0.0534 C   0  0  0  0  0  0  0  0  0  0  0  0
   -3.8243    2.7006    0.0397 C   0  0  0  0  0  0  0  0  0  0  0  0
   -5.0642    2.6490   -0.7706 C   0  0  0  0  0  0  0  0  0  0  0  0
   -6.1871    2.8322    0.0183 O   0  0  0  0  0  0  0  0  0  0  0  0
   -3.4877    3.9089    0.8036 C   0  0  0  0  0  0  0  0  0  0  0  0
   -2.1860    3.6827    1.5267 C   0  0  0  0  0  0  0  0  0  0  0  0
  1  2  1  0
  2  3  1  0
  2  4  1  0
  4  5  2  3
  5  6  1  0
  6  7  1  0
  7  8  1  0
  8  9  2  0
  9 10  1  0
  9 11  1  0
 11 12  2  0
 12 13  1  0
 13 14  1  0
 14 15  1  0
 12 16  1  0
 16 17  1  0
 17 18  1  0
  6 19  2  3
 19 20  1  0
 20 21  2  3
 21 22  1  0
 22 23  1  0
 21 24  1  0
 24 25  1  0
 17  8  1  0
M  END
$$$$
