
     RDKit          3D

 48 49  0  0  0  0  0  0  0  0999 V2000
   -6.8295   -2.4480   -0.0818 C   0  0  0  0  0  0  0  0  0  0  0  0
   -6.4532   -1.0714   -0.5082 C   0  0  1  0  0  0  0  0  0  0  0  0
   -7.6033   -0.2164   -0.9359 C   0  0  0  0  0  0  0  0  0  0  0  0
   -7.9788    0.8428    0.0228 C   0  0  2  0  0  0  0  0  0  0  0  0
   -7.4984    2.1170   -0.2408 O   0  0  0  0  0  0  0  0  0  0  0  0
   -7.8067    0.5030    1.4645 C   0  0  2  0  0  0  0  0  0  0  0  0
   -7.6838    1.7231    2.1682 O   0  0  0  0  0  0  0  0  0  0  0  0
   -6.5940   -0.2931    1.7770 C   0  0  1  0  0  0  0  0  0  0  0  0
   -6.9924   -1.6090    2.0271 O   0  0  0  0  0  0  0  0  0  0  0  0
   -5.6687   -0.3291    0.5458 C   0  0  1  0  0  0  0  0  0  0  0  0
   -4.4466   -0.9216    0.9510 N   0  0  0  0  0  0  0  0  0  0  0  0
   -4.2287   -0.4888    2.3380 C   0  0  0  0  0  3  0  0  0  0  0  0
   -3.8581    0.9771    2.2034 C   0  0  0  0  0  0  0  0  0  0  0  0
   -4.6583    1.6177    1.2617 O   0  0  0  0  0  0  0  0  0  0  0  0
   -3.9851    2.2276    0.2383 C   0  0  1  0  0  0  0  0  0  0  0  0
   -2.5805    2.2056    0.4166 O   0  0  0  0  0  0  0  0  0  0  0  0
   -4.3818    1.6954   -1.1053 C   0  0  1  0  0  0  0  0  0  0  0  0
   -4.7609    2.7562   -1.8954 O   0  0  0  0  0  0  0  0  0  0  0  0
   -3.3979    0.8221   -1.7540 C   0  0  2  0  0  0  0  0  0  0  0  0
   -3.6143    0.8059   -3.1504 O   0  0  0  0  0  0  0  0  0  0  0  0
   -3.2611   -0.5457   -1.1913 C   0  0  2  0  0  0  0  0  0  0  0  0
   -4.0428   -1.4753   -1.8127 O   0  0  0  0  0  0  0  0  0  0  0  0
   -3.2597   -0.5117    0.3184 C   0  0  2  0  0  0  0  0  0  0  0  0
   -2.1714   -1.3525    0.8138 C   0  0  2  0  0  0  0  0  0  0  0  0
   -2.2726   -2.6802    0.5341 O   0  0  0  0  0  0  0  0  0  0  0  0
   -1.9002   -1.3056    2.3604 C   0  0  0  0  0  3  0  0  0  0  0  0
   -0.4761   -0.7318    2.4153 C   0  0  2  0  0  0  0  0  0  0  0  0
   -0.1584    0.4780    2.7023 O   0  0  0  0  0  0  0  0  0  0  0  0
   -0.1110   -1.0520    1.0312 O   0  0  0  0  0  0  0  0  0  0  0  0
    0.3292   -0.0420    0.4740 O   0  0  0  0  0  0  0  0  0  0  0  0
    1.5946    0.7075    0.3309 S   0  0  0  0  0  0  0  0  0  0  0  0
    2.2809    1.5303    1.0831 O   0  0  0  0  0  0  0  0  0  0  0  0
    2.8508   -1.1222    0.5250 S   0  0  0  0  0  0  0  0  0  0  0  0
    3.3479   -1.1469   -1.1656 C   0  0  0  0  0  3  0  0  0  0  0  0
    3.6131   -0.0090   -1.8616 O   0  0  0  0  0  0  0  0  0  0  0  0
    3.9027    1.0568   -1.1466 C   0  0  0  0  0  0  0  0  0  0  0  0
    4.8132    0.5192   -0.0790 O   0  0  0  0  0  0  0  0  0  0  0  0
    5.7575   -0.2755   -0.7802 C   0  0  0  0  0  0  0  0  0  0  0  0
    6.4135    0.3275   -1.9168 C   0  0  0  0  0  0  0  0  0  0  0  0
    7.4467   -0.5701   -2.4882 C   0  0  0  0  0  3  0  0  0  0  0  0
    8.7380   -0.1702   -1.5403 C   0  0  2  0  0  0  0  0  0  0  0  0
    9.0006    1.1553   -2.1716 O   0  0  0  0  0  0  0  0  0  0  0  0
    9.9247   -0.9695   -2.2259 C   0  0  0  0  0  0  0  0  0  0  0  0
   11.0533   -0.1721   -2.0433 O   0  0  0  0  0  0  0  0  0  0  0  0
   11.5075    0.1484   -0.9078 C   0  0  0  0  0  3  0  0  0  0  0  0
   11.8871   -0.6452    0.0848 O   0  0  0  0  0  0  0  0  0  0  0  0
   12.1637   -0.2174    1.3633 C   0  0  0  0  0  0  0  0  0  0  0  0
   12.0495    1.0125    1.5514 O   0  0  0  0  0  0  0  0  0  0  0  0
  2  1  1  1
  2  3  1  0
  3  4  1  0
  4  5  1  6
  4  6  1  0
  6  7  1  1
  6  8  1  0
  8  9  1  6
  8 10  1  0
 10 11  1  1
 11 12  1  0
 12 13  1  0
 13 14  1  0
 14 15  1  0
 15 16  1  1
 15 17  1  0
 17 18  1  6
 17 19  1  0
 19 20  1  6
 19 21  1  0
 21 22  1  1
 21 23  1  0
 23 24  1  0
 24 25  1  1
 24 26  1  0
 26 27  1  0
 27 28  1  6
 27 29  1  0
 29 30  1  0
 30 31  1  0
 31 32  1  0
 31 33  1  0
 33 34  1  0
 34 35  1  0
 35 36  1  0
 36 37  1  0
 37 38  1  0
 38 39  1  0
 39 40  1  0
 40 41  1  0
 41 42  1  6
 41 43  1  0
 43 44  1  0
 44 45  1  0
 45 46  1  0
 46 47  1  0
 47 48  2  0
 10  2  1  0
 23 11  1  1
M  RAD  5  12   2  26   2  34   2  40   2  45   2
M  END
$$$$
