
     RDKit          3D

 41 40  0  0  0  0  0  0  0  0999 V2000
  -10.0283    1.4919    0.5199 C   0  0  0  0  0  0  0  0  0  0  0  0
  -10.1746    0.0123    0.2875 C   0  0  0  0  0  0  0  0  0  0  0  0
   -8.8586   -0.4838   -0.2824 C   0  0  0  0  0  0  0  0  0  0  0  0
  -10.4949   -0.7148    1.5726 C   0  0  0  0  0  0  0  0  0  0  0  0
   -9.2316   -0.9201    2.3643 C   0  0  0  0  0  0  0  0  0  0  0  0
   -8.8166    0.2978    3.1154 C   0  0  0  0  0  0  0  0  0  0  0  0
   -7.4980    0.7791    2.5953 C   0  0  1  0  0  0  0  0  0  0  0  0
   -6.8975    1.8518    3.4681 C   0  0  0  0  0  0  0  0  0  0  0  0
   -6.5028   -0.3353    2.4486 C   0  0  0  0  0  3  0  0  0  0  0  0
   -6.8083   -1.1588    1.2097 C   0  0  0  0  0  0  0  0  0  0  0  0
   -7.4141   -0.2121    0.1908 C   0  0  0  0  0  0  0  0  0  0  0  0
   -6.5899   -0.1955   -1.0510 C   0  0  0  0  0  3  0  0  0  0  0  0
   -5.2340    0.3966   -0.8193 C   0  0  1  0  0  0  0  0  0  0  0  0
   -5.2813    1.5883    0.1275 C   0  0  0  0  0  0  0  0  0  0  0  0
   -4.2094   -0.6262   -0.3916 C   0  0  0  0  0  0  0  0  0  0  0  0
   -2.9122   -0.2376   -1.0605 C   0  0  1  0  0  0  0  0  0  0  0  0
   -2.6639    1.2236   -0.8303 C   0  0  0  0  0  0  0  0  0  0  0  0
   -1.7423   -1.1083   -0.6565 C   0  0  0  0  0  0  0  0  0  0  0  0
   -1.2120   -1.8853   -1.8080 C   0  0  0  0  0  0  0  0  0  0  0  0
   -0.7179   -0.3688    0.1568 C   0  0  0  0  0  0  0  0  0  0  0  0
   -0.4668    0.9119   -0.3046 O   0  0  0  0  0  0  0  0  0  0  0  0
    0.5860    1.0356   -1.1690 C   0  0  0  0  0  0  0  0  0  0  0  0
    1.2023   -0.3251   -1.3236 C   0  0  0  0  0  3  0  0  0  0  0  0
    1.9443   -0.6674   -0.1283 N   0  0  0  0  0  3  0  0  0  0  0  0
    2.2906    0.4933    0.6610 C   0  0  0  0  0  2  0  0  0  0  0  0
    3.0726   -1.3309   -0.4767 O   0  0  0  0  0  0  0  0  0  0  0  0
    2.9568   -1.7594   -1.8006 C   0  0  0  0  0  3  0  0  0  0  0  0
    4.0934   -1.2552   -2.6598 C   0  0  0  0  0  0  0  0  0  0  0  0
    4.1734    0.1125   -2.6254 O   0  0  0  0  0  0  0  0  0  0  0  0
    4.8209    0.5504   -1.4850 N   0  0  0  0  0  3  0  0  0  0  0  0
    5.6614   -0.4834   -0.9399 C   0  0  0  0  0  2  0  0  0  0  0  0
    5.3349    1.7579   -2.0571 C   0  0  0  0  0  3  0  0  0  0  0  0
    7.2328    0.9555   -2.1238 N   0  0  0  0  0  4  0  0  0  0  0  0
    8.1239    0.5661   -2.1568 C   0  0  0  0  0  0  0  0  0  0  0  0
    9.0936    0.1312   -2.2024 C   0  0  0  0  0  0  0  0  0  0  0  0
    9.8596    0.7089   -0.7799 C   0  0  0  0  0  0  0  0  0  0  0  0
   10.0342   -0.2677    0.3384 C   0  0  0  0  0  0  0  0  0  0  0  0
   11.4301   -0.0336    0.9288 C   0  0  0  0  0  0  0  0  0  0  0  0
   11.5155    0.6750    2.1873 C   0  0  0  0  0  3  0  0  0  0  0  0
   10.5668   -0.2333    3.0984 N   0  0  0  0  0  4  0  0  0  0  0  0
    9.7620   -1.0139    3.8621 C   0  0  0  0  0  0  0  0  0  0  0  0
  1  2  1  0
  2  3  1  0
  2  4  1  0
  4  5  1  0
  5  6  1  0
  6  7  1  0
  7  8  1  1
  7  9  1  0
  9 10  1  0
 10 11  1  0
 11 12  1  0
 12 13  1  0
 13 14  1  1
 13 15  1  0
 15 16  1  0
 16 17  1  1
 16 18  1  0
 18 19  1  0
 18 20  1  0
 20 21  1  0
 21 22  1  0
 22 23  1  0
 23 24  1  0
 24 25  1  0
 24 26  1  0
 26 27  1  0
 27 28  1  0
 28 29  1  0
 29 30  1  0
 30 31  1  0
 30 32  1  0
 32 33  1  0
 33 34  3  0
 34 35  1  0
 35 36  1  0
 36 37  1  0
 37 38  1  0
 38 39  1  0
 39 40  1  0
 40 41  3  0
M  RAD  8   9   2  12   2  23   2  24   2  25   3  27   2  30   2  31   3
M  CHG  4  24   1  30   1  33   1  40   1
M  RAD  2  32   2  39   2
M  END
$$$$
