
     RDKit          3D

 74 77  0  0  0  0  0  0  0  0999 V2000
   -5.3770   -3.9973   -0.1452 C   0  0  0  0  0  0  0  0  0  0  0  0
   -6.3320   -3.2682   -1.0740 C   0  0  1  0  0  0  0  0  0  0  0  0
   -7.4143   -4.2917   -1.4420 C   0  0  0  0  0  0  0  0  0  0  0  0
   -8.0222   -4.8616   -0.1638 C   0  0  2  0  0  0  0  0  0  0  0  0
   -9.0076   -5.7655   -0.5376 O   0  0  0  0  0  0  0  0  0  0  0  0
   -8.6763   -3.7146    0.5947 C   0  0  2  0  0  0  0  0  0  0  0  0
   -9.4329   -2.9914   -0.3466 O   0  0  0  0  0  0  0  0  0  0  0  0
   -7.5318   -2.7795    1.0009 C   0  0  1  0  0  0  0  0  0  0  0  0
   -6.5656   -3.4503    1.7159 O   0  0  0  0  0  0  0  0  0  0  0  0
   -7.0020   -2.1858   -0.2939 C   0  0  1  0  0  0  0  0  0  0  0  0
   -6.1454   -1.0904    0.0488 N   0  0  0  0  0  0  0  0  0  0  0  0
   -6.8153   -0.3438    1.1208 C   0  0  0  0  0  3  0  0  0  0  0  0
   -6.6815    1.1358    0.9517 C   0  0  0  0  0  0  0  0  0  0  0  0
   -6.7934    1.7612    2.3407 C   0  0  0  0  0  2  0  0  0  0  0  0
   -7.7249    1.6887    0.1868 O   0  0  0  0  0  0  0  0  0  0  0  0
   -7.2536    2.5629   -0.7800 C   0  0  0  0  0  0  0  0  0  0  0  0
   -6.6421    3.6537   -0.1870 O   0  0  0  0  0  0  0  0  0  0  0  0
   -6.1781    4.4291   -1.1423 O   0  0  0  0  0  0  0  0  0  0  0  0
   -6.7071    5.7152   -1.0012 C   0  0  1  0  0  0  0  0  0  0  0  0
   -7.9292    5.6880   -0.3406 O   0  0  0  0  0  0  0  0  0  0  0  0
   -5.7627    6.6527   -0.2948 C   0  0  2  0  0  0  0  0  0  0  0  0
   -5.5653    7.8190   -1.0196 O   0  0  0  0  0  0  0  0  0  0  0  0
   -4.4205    6.0161   -0.0159 C   0  0  0  0  0  3  0  0  0  0  0  0
   -3.2882    6.8011   -0.6335 C   0  0  0  0  0  3  0  0  0  0  0  0
   -2.5375    7.4951    0.4717 C   0  0  0  0  0  0  0  0  0  0  0  0
   -1.6731    8.4342   -0.0982 O   0  0  0  0  0  0  0  0  0  0  0  0
   -0.8159    8.8820    0.8504 N   0  0  0  0  0  3  0  0  0  0  0  0
    0.0768    9.7094    0.2529 O   0  0  0  0  0  0  0  0  0  0  0  0
   -0.0983    7.7739    1.4367 C   0  0  0  0  0  3  0  0  0  0  0  0
    1.2704    8.0043    1.3831 O   0  0  0  0  0  0  0  0  0  0  0  0
    1.9141    6.9687    0.1440 P   0  0  0  0  0  0  0  0  0  0  0  0
    3.6345    6.8295    0.3380 O   0  0  0  0  0  0  0  0  0  0  0  0
    4.0709    5.7284   -0.4326 C   0  0  0  0  0  3  0  0  0  0  0  0
    5.5756    5.7912   -0.5525 C   0  0  2  0  0  0  0  0  0  0  0  0
    6.0039    7.1114   -0.5899 F   0  0  0  0  0  0  0  0  0  0  0  0
    5.9789    5.1310   -1.7745 N   0  0  0  0  0  0  0  0  0  0  0  0
    7.0104    4.1431   -1.5263 C   0  0  0  0  0  3  0  0  0  0  0  0
    6.4487    2.7361   -1.6735 C   0  0  0  0  0  0  0  0  0  0  0  0
    6.2975    2.1230   -0.3145 C   0  0  2  0  0  0  0  0  0  0  0  0
    7.4654    1.2690    0.0942 C   0  0  0  0  0  3  0  0  0  0  0  0
    8.6032    2.0767    0.1027 O   0  0  0  0  0  0  0  0  0  0  0  0
    9.6878    1.4159   -0.1631 O   0  0  0  0  0  0  0  0  0  0  0  0
   10.2079    1.8599   -1.3784 C   0  0  0  0  0  2  0  0  0  0  0  0
    4.9897    1.4100   -0.1238 C   0  0  0  0  0  0  0  0  0  0  0  0
    5.1114    0.0434   -0.2214 O   0  0  0  0  0  0  0  0  0  0  0  0
    5.2024   -0.5874    1.0286 C   0  0  2  0  0  0  0  0  0  0  0  0
    6.2812   -1.6617    0.9075 C   0  0  0  0  0  3  0  0  0  0  0  0
    5.7453   -2.7251   -0.0265 C   0  0  0  0  0  0  0  0  0  0  0  0
    6.8555   -3.7319   -0.2866 C   0  0  2  0  0  0  0  0  0  0  0  0
    6.3526   -4.8190   -1.2241 C   0  0  0  0  0  0  0  0  0  0  0  0
    7.2325   -4.3919    1.0315 C   0  0  0  0  0  3  0  0  0  0  0  0
    7.6721   -3.4169    1.9206 O   0  0  0  0  0  0  0  0  0  0  0  0
    7.7511   -3.9864    3.1897 C   0  0  0  0  0  0  0  0  0  0  0  0
    3.9683   -1.1519    1.3273 O   0  0  0  0  0  0  0  0  0  0  0  0
    4.0360   -2.4719    1.7040 C   0  0  2  0  0  0  0  0  0  0  0  0
    4.8172   -2.6233    2.8432 O   0  0  0  0  0  0  0  0  0  0  0  0
    4.5667   -3.3917    0.6490 C   0  0  1  0  0  0  0  0  0  0  0  0
    3.6279   -3.7910   -0.2781 O   0  0  0  0  0  0  0  0  0  0  0  0
    3.0694   -4.9853    0.1791 C   0  0  1  0  0  0  0  0  0  0  0  0
    2.1864   -4.6611    1.3411 C   0  0  0  0  0  0  0  0  0  0  0  0
    1.5542   -5.7593    1.8790 O   0  0  0  0  0  0  0  0  0  0  0  0
    0.2804   -5.8160    1.5096 O   0  0  0  0  0  0  0  0  0  0  0  0
    0.2394   -5.7836    0.1201 C   0  0  2  0  0  0  0  0  0  0  0  0
    0.6029   -4.4832   -0.2842 O   0  0  0  0  0  0  0  0  0  0  0  0
    0.7608   -4.4362   -1.5920 O   0  0  0  0  0  0  0  0  0  0  0  0
    2.0320   -4.9163   -1.8745 C   0  0  2  0  0  0  0  0  0  0  0  0
    1.9683   -5.6242   -3.0695 O   0  0  0  0  0  0  0  0  0  0  0  0
    2.4668   -5.7236   -0.8099 O   0  0  0  0  0  0  0  0  0  0  0  0
   -1.1874   -6.0186   -0.3068 C   0  0  2  0  0  0  0  0  0  0  0  0
   -1.2724   -6.7357   -1.4856 O   0  0  0  0  0  0  0  0  0  0  0  0
   -1.8645   -4.6712   -0.5368 C   0  0  0  0  0  3  0  0  0  0  0  0
   -3.1913   -4.8181   -0.2143 O   0  0  0  0  0  0  0  0  0  0  0  0
   -3.9359   -3.6845   -0.4833 C   0  0  1  0  0  0  0  0  0  0  0  0
   -3.7717   -3.2531   -1.9251 C   0  0  0  0  0  2  0  0  0  0  0  0
  1  2  1  0
  2  3  1  1
  3  4  1  0
  4  5  1  6
  4  6  1  0
  6  7  1  6
  6  8  1  0
  8  9  1  6
  8 10  1  0
 10 11  1  1
 11 12  1  0
 12 13  1  0
 13 14  1  0
 13 15  1  0
 15 16  1  0
 16 17  1  0
 17 18  1  0
 18 19  1  0
 19 20  1  1
 19 21  1  0
 21 22  1  6
 21 23  1  0
 23 24  1  0
 24 25  1  0
 25 26  1  0
 26 27  1  0
 27 28  1  0
 27 29  1  0
 29 30  1  0
 30 31  1  0
 31 32  1  0
 32 33  1  0
 33 34  1  0
 34 35  1  6
 34 36  1  0
 36 37  1  0
 37 38  1  0
 38 39  1  0
 39 40  1  6
 40 41  1  0
 41 42  1  0
 42 43  1  0
 39 44  1  0
 44 45  1  0
 45 46  1  0
 46 47  1  6
 47 48  1  0
 48 49  1  0
 49 50  1  6
 49 51  1  0
 51 52  1  0
 52 53  1  0
 46 54  1  0
 54 55  1  0
 55 56  1  1
 55 57  1  0
 57 58  1  6
 58 59  1  0
 59 60  1  0
 60 61  1  0
 61 62  1  0
 62 63  1  0
 63 64  1  1
 64 65  1  0
 65 66  1  0
 66 67  1  6
 66 68  1  0
 63 69  1  0
 69 70  1  6
 69 71  1  0
 71 72  1  0
 72 73  1  0
 73 74  1  6
 73  1  1  0
 10  2  1  0
 57 48  1  0
 59 68  1  6
M  RAD  8  12   2  14   3  23   2  24   2  27   2  29   2  33   2  37   2
M  CHG  1  27   1
M  RAD  6  40   2  43   3  47   2  51   2  71   2  74   3
M  END
$$$$
