
     RDKit          3D

 46 46  0  0  0  0  0  0  0  0999 V2000
  -12.8052    2.3307   -0.1037 C   0  0  0  0  0  0  0  0  0  0  0  0
  -11.4738    2.6347   -0.7608 C   0  0  0  0  0  0  0  0  0  0  0  0
  -11.4141    1.8739   -2.0660 C   0  0  0  0  0  0  0  0  0  0  0  0
  -11.3710    4.1071   -1.0844 C   0  0  0  0  0  0  0  0  0  0  0  0
  -10.3399    2.1876    0.1425 C   0  0  0  0  0  0  0  0  0  0  0  0
  -10.4601    0.6986    0.3801 C   0  0  0  0  0  0  0  0  0  0  0  0
   -9.3659    0.2408    1.2568 C   0  0  0  0  0  0  0  0  0  0  0  0
   -9.2991   -1.1822    1.6133 C   0  0  0  0  0  0  0  0  0  0  0  0
   -9.1640   -2.1522    0.4878 C   0  0  0  0  0  0  0  0  0  0  0  0
   -9.1134   -3.5574    1.0690 C   0  0  0  0  0  0  0  0  0  0  0  0
   -8.1663    1.0768    1.3716 C   0  0  0  0  0  0  0  0  0  0  0  0
   -7.1376    0.5034    2.2875 C   0  0  0  0  0  0  0  0  0  0  0  0
   -6.6770   -0.8160    1.8030 C   0  0  0  0  0  0  0  0  0  0  0  0
   -6.0265   -0.8997    0.5140 C   0  0  0  0  0  0  0  0  0  0  0  0
   -5.6311   -2.1322    0.1058 O   0  0  0  0  0  0  0  0  0  0  0  0
   -6.2527    0.0572   -0.5484 C   0  0  0  0  0  0  0  0  0  0  0  0
   -5.8904    1.4878   -0.2415 C   0  0  0  0  0  0  0  0  0  0  0  0
   -4.4465    1.6746    0.1018 C   0  0  0  0  0  2  0  0  0  0  0  0
   -3.7739    0.3129    0.1456 C   0  0  0  0  0  0  0  0  0  0  0  0
   -2.3851    0.4462    0.7596 C   0  0  0  0  0  0  0  0  0  0  0  0
   -1.5300    1.3893   -0.0608 C   0  0  0  0  0  3  0  0  0  0  0  0
   -1.4105    0.7790   -1.4619 C   0  0  0  0  0  0  0  0  0  0  0  0
   -0.7367   -0.5692   -1.3409 C   0  0  0  0  0  0  0  0  0  0  0  0
   -1.5508   -1.5065   -0.4493 C   0  0  0  0  0  0  0  0  0  0  0  0
   -0.7929   -2.8274   -0.3785 C   0  0  0  0  0  3  0  0  0  0  0  0
    0.5758   -2.5901    0.2032 C   0  0  0  0  0  0  0  0  0  0  0  0
    1.4617   -1.8895   -0.5048 C   0  0  0  0  0  0  0  0  0  0  0  0
    2.8176   -1.6209    0.0049 C   0  0  0  0  0  0  0  0  0  0  0  0
    3.0770   -0.1585    0.1247 C   0  0  0  0  0  0  0  0  0  0  0  0
    3.9573    0.2435    0.9379 N   0  0  0  0  0  3  0  0  0  0  0  0
    4.7603   -0.5608    1.7846 C   0  0  0  0  0  0  0  0  0  0  0  0
    4.8972   -1.9604    1.7142 C   0  0  0  0  0  0  0  0  0  0  0  0
    5.9701   -1.1239    1.1090 N   0  0  0  0  0  0  0  0  0  0  0  0
    7.1853   -0.9282    0.4255 C   0  0  0  0  0  0  0  0  0  0  0  0
    7.5958   -1.9561   -0.5805 C   0  0  0  0  0  0  0  0  0  0  0  0
    7.9278    0.0953    0.6478 N   0  0  0  0  0  4  0  0  0  0  0  0
    7.5291    1.0831    1.6170 C   0  0  0  0  0  0  0  0  0  0  0  0
    9.1728    0.2782   -0.0636 C   0  0  0  0  0  0  0  0  0  0  0  0
   10.3199    0.1207    0.9204 C   0  0  0  0  0  0  0  0  0  0  0  0
   11.6274    0.2958    0.2476 C   0  0  0  0  0  0  0  0  0  0  0  0
   11.8348   -0.2718   -0.8792 N   0  0  0  0  0  4  0  0  0  0  0  0
   10.8430   -1.0660   -1.5022 C   0  0  0  0  0  0  0  0  0  0  0  0
   13.1140   -0.0770   -1.4967 C   0  0  0  0  0  0  0  0  0  0  0  0
   13.9930    0.7814   -0.6792 C   0  0  0  0  0  0  0  0  0  0  0  0
   14.2885    1.9627   -0.9663 N   0  0  0  0  0  4  0  0  0  0  0  0
   14.2660    3.1847   -1.1745 N   0  0  0  0  0  2  0  0  0  0  0  0
  1  2  1  0
  2  3  1  0
  2  4  1  0
  2  5  1  0
  5  6  1  0
  6  7  1  0
  7  8  1  0
  8  9  1  0
  9 10  1  0
  7 11  1  0
 11 12  1  0
 12 13  1  0
 13 14  1  0
 14 15  1  0
 14 16  1  0
 16 17  1  0
 17 18  1  0
 18 19  1  0
 19 20  1  0
 20 21  1  0
 21 22  1  0
 22 23  1  0
 23 24  1  0
 24 25  1  0
 25 26  1  0
 26 27  2  3
 27 28  1  0
 28 29  1  0
 29 30  2  3
 30 31  1  0
 31 32  1  0
 31 33  1  0
 33 34  1  0
 34 35  1  0
 34 36  2  3
 36 37  1  0
 36 38  1  0
 38 39  1  0
 39 40  1  0
 40 41  2  3
 41 42  1  0
 41 43  1  0
 43 44  1  0
 44 45  2  0
 45 46  2  0
 33 32  1  0
M  CHG  5  30   1  36   1  41   1  45   1  46  -1
M  RAD  4  18   3  21   2  25   2  30   2
M  END
$$$$
