
     RDKit          3D

 87 90  0  0  0  0  0  0  0  0999 V2000
  -15.5552   -1.0824    2.9996 C   0  0  0  0  0  0  0  0  0  0  0  0
  -14.2040   -0.8065    2.7340 O   0  0  0  0  0  0  0  0  0  0  0  0
  -13.6266    0.4160    3.0710 C   0  0  0  0  0  0  0  0  0  0  0  0
  -14.3594    1.4130    3.6808 C   0  0  0  0  0  0  0  0  0  0  0  0
  -13.7801    2.6089    4.0049 C   0  0  0  0  0  0  0  0  0  0  0  0
  -12.4412    2.8004    3.7097 C   0  0  0  0  0  0  0  0  0  0  0  0
  -11.7064    1.7844    3.0923 C   0  0  0  0  0  0  0  0  0  0  0  0
  -12.2758    0.5808    2.7615 C   0  0  0  0  0  0  0  0  0  0  0  0
  -11.5897   -0.4518    2.1516 O   0  0  0  0  0  0  0  0  0  0  0  0
  -10.2103   -0.3079    1.8173 C   0  0  1  0  0  0  0  0  0  0  0  0
   -9.6742   -1.5740    1.1792 C   0  0  0  0  0  0  0  0  0  0  0  0
   -8.5045   -2.0646    1.8998 N   0  0  0  0  0  0  0  0  0  0  0  0
   -8.2036   -1.2287    3.0439 C   0  0  0  0  0  3  0  0  0  0  0  0
   -6.7557   -0.9165    3.2160 C   0  0  0  0  0  0  0  0  0  0  0  0
   -6.3028    0.3424    2.5093 C   0  0  0  0  0  0  0  0  0  0  0  0
   -5.3962    0.0545    1.3606 C   0  0  2  0  0  0  0  0  0  0  0  0
   -4.3008   -0.8707    1.8864 C   0  0  0  0  0  0  0  0  0  0  0  0
   -4.7063    1.2878    0.8187 C   0  0  2  0  0  0  0  0  0  0  0  0
   -3.5410    1.4957    1.6015 O   0  0  0  0  0  0  0  0  0  0  0  0
   -5.5176    2.5057    0.9075 C   0  0  0  0  0  0  0  0  0  0  0  0
   -5.7420    3.2033   -0.1751 C   0  0  0  0  0  0  0  0  0  0  0  0
   -6.3411    3.7477   -1.2214 C   0  0  0  0  0  0  0  0  0  0  0  0
   -7.3082    3.0220   -2.0126 C   0  0  0  0  0  0  0  0  0  0  0  0
   -7.4592    3.2681   -3.2881 C   0  0  0  0  0  0  0  0  0  0  0  0
   -7.5556    3.0199   -4.5592 C   0  0  0  0  0  0  0  0  0  0  0  0
   -7.6413    2.4719   -5.7506 C   0  0  0  0  0  0  0  0  0  0  0  0
   -8.5400    3.0770   -6.7535 C   0  0  0  0  0  0  0  0  0  0  0  0
   -4.2494    1.0561   -0.5477 C   0  0  0  0  0  0  0  0  0  0  0  0
   -4.1543    1.9023   -1.5373 C   0  0  0  0  0  0  0  0  0  0  0  0
   -3.6539    1.4805   -2.9015 C   0  0  2  0  0  0  0  0  0  0  0  0
   -4.7802    1.2015   -3.8554 C   0  0  0  0  0  2  0  0  0  0  0  0
  -10.0049    0.8975    0.9209 C   0  0  0  0  0  0  0  0  0  0  0  0
   -8.7112    0.8859    0.1860 C   0  0  0  0  0  0  0  0  0  0  0  0
   -8.2846   -0.4336   -0.3591 C   0  0  0  0  0  0  0  0  0  0  0  0
   -7.4919   -0.3504   -1.6264 C   0  0  0  0  0  3  0  0  0  0  0  0
   -6.4547   -1.2698   -1.5907 O   0  0  0  0  0  0  0  0  0  0  0  0
   -6.3143   -2.2337   -3.0154 S   0  0  0  0  0  0  0  0  0  0  0  0
   -7.3538   -3.4534   -3.3267 C   0  0  0  0  0  0  0  0  0  0  0  0
   -7.0931   -4.1694   -4.5757 C   0  0  0  0  0  0  0  0  0  0  0  0
   -6.1248   -3.8840   -5.3916 C   0  0  0  0  0  0  0  0  0  0  0  0
   -5.1322   -2.8561   -5.2744 C   0  0  0  0  0  0  0  0  0  0  0  0
   -5.0387   -1.9852   -4.2575 C   0  0  0  0  0  0  0  0  0  0  0  0
   -4.0429   -1.0496   -4.2637 O   0  0  0  0  0  0  0  0  0  0  0  0
   -3.0830   -0.8249   -3.3207 C   0  0  0  0  0  0  0  0  0  0  0  0
   -2.8404    0.2745   -2.6632 C   0  0  0  0  0  0  0  0  0  0  0  0
   -1.5273    0.3325   -1.4725 S   0  0  0  0  0  0  0  0  0  0  0  0
   -0.6986   -1.1438   -1.3165 O   0  0  0  0  0  0  0  0  0  0  0  0
    0.0613   -1.0428   -0.2442 O   0  0  0  0  0  0  0  0  0  0  0  0
   -0.7055   -1.1404    0.9296 C   0  0  0  0  0  0  0  0  0  0  0  0
    0.2704   -1.0073    2.1044 C   0  0  0  0  0  3  0  0  0  0  0  0
    1.6948   -0.8164    1.6064 C   0  0  0  0  0  0  0  0  0  0  0  0
    2.0147   -2.0572    0.7845 C   0  0  0  0  0  0  0  0  0  0  0  0
    3.4086   -1.9494    0.2487 C   0  0  0  0  0  2  0  0  0  0  0  0
    3.4524   -1.0707   -0.8364 O   0  0  0  0  0  0  0  0  0  0  0  0
    4.7635   -0.9249   -1.2944 C   0  0  0  0  0  0  0  0  0  0  0  0
    5.3369   -2.2087   -1.7329 C   0  0  0  0  0  0  0  0  0  0  0  0
    6.3901   -2.7303   -1.2075 C   0  0  0  0  0  0  0  0  0  0  0  0
    7.2423   -2.3371   -0.1922 N   0  0  0  0  0  0  0  0  0  0  0  0
    7.4072   -1.0220    0.3081 C   0  0  1  0  0  0  0  0  0  0  0  0
    6.2508   -0.5447    0.9332 O   0  0  0  0  0  0  0  0  0  0  0  0
    6.4138    0.6572    1.3890 O   0  0  0  0  0  0  0  0  0  0  0  0
    5.4445    1.5534    0.9449 C   0  0  0  0  0  3  0  0  0  0  0  0
    5.7650    2.0693   -0.3244 O   0  0  0  0  0  0  0  0  0  0  0  0
    4.6108    2.4634   -1.0038 C   0  0  0  0  0  0  0  0  0  0  0  0
    8.5168   -0.9628    1.3799 C   0  0  0  0  0  0  0  0  0  0  0  0
    8.8910    0.7749    1.7386 S   0  0  0  0  0  0  0  0  0  0  0  0
    8.9550    1.8164    0.2865 C   0  0  0  0  0  3  0  0  0  0  0  0
    9.5936    3.1343    0.5777 C   0  0  0  0  0  3  0  0  0  0  0  0
    9.8259    3.8701   -0.5946 O   0  0  0  0  0  0  0  0  0  0  0  0
   10.6933    3.1606   -1.3907 O   0  0  0  0  0  0  0  0  0  0  0  0
   10.6535    1.8214   -1.2422 N   0  0  0  0  0  0  0  0  0  0  0  0
   11.4867    0.9052   -1.4580 C   0  0  0  0  0  0  0  0  0  0  0  0
   11.1013   -0.4951   -1.1741 N   0  0  0  0  0  0  0  0  0  0  0  0
   10.4180   -0.7372   -0.2117 C   0  0  0  0  0  0  0  0  0  0  0  0
    9.7256   -1.4886    0.6598 N   0  0  0  0  0  0  0  0  0  0  0  0
   10.0277   -2.8536    1.0250 C   0  0  0  0  0  0  0  0  0  0  0  0
   11.3099   -2.8825    1.8192 C   0  0  0  0  0  3  0  0  0  0  0  0
   12.5145   -3.0536    0.9231 C   0  0  0  0  0  3  0  0  0  0  0  0
   13.6638   -1.6740    1.0420 S   0  0  0  0  0  0  0  0  0  0  0  0
   13.0853   -0.4160    2.2162 C   0  0  0  0  0  3  0  0  0  0  0  0
   13.9766    0.6256    2.2974 O   0  0  0  0  0  0  0  0  0  0  0  0
   14.4046    1.0810    1.0482 C   0  0  0  0  0  3  0  0  0  0  0  0
   15.5947    0.2351    0.6807 C   0  0  0  0  0  0  0  0  0  0  0  0
   16.6919    0.3601    1.4528 C   0  0  0  0  0  0  0  0  0  0  0  0
   16.7457    1.2730    2.6036 C   0  0  0  0  0  3  0  0  0  0  0  0
   16.8351    0.2491    4.1768 Si  0  0  0  0  0  3  0  0  0  0  0  0
   15.7415    0.2925    5.2340 O   0  0  0  0  0  0  0  0  0  0  0  0
  1  2  1  0
  2  3  1  0
  3  4  2  0
  4  5  1  0
  5  6  2  0
  6  7  1  0
  7  8  2  0
  8  9  1  0
 10  9  1  6
 10 11  1  0
 11 12  1  0
 12 13  1  0
 13 14  1  0
 14 15  1  0
 15 16  1  0
 16 17  1  1
 16 18  1  0
 18 19  1  1
 18 20  1  0
 20 21  2  0
 21 22  2  0
 22 23  1  0
 23 24  2  0
 24 25  2  0
 25 26  2  0
 26 27  1  0
 18 28  1  0
 28 29  2  3
 29 30  1  0
 30 31  1  6
 10 32  1  0
 32 33  1  0
 33 34  1  0
 34 35  1  0
 35 36  1  0
 36 37  1  0
 37 38  2  0
 38 39  1  0
 39 40  2  0
 40 41  1  0
 41 42  2  0
 42 43  1  0
 43 44  1  0
 44 45  2  3
 45 46  1  0
 46 47  1  0
 47 48  1  0
 48 49  1  0
 49 50  1  0
 50 51  1  0
 51 52  1  0
 52 53  1  0
 53 54  1  0
 54 55  1  0
 55 56  1  0
 56 57  2  3
 57 58  1  0
 59 58  1  1
 59 60  1  0
 60 61  1  0
 61 62  1  0
 62 63  1  0
 63 64  1  0
 59 65  1  0
 65 66  1  0
 66 67  1  0
 67 68  1  0
 68 69  1  0
 69 70  1  0
 70 71  1  0
 71 72  2  0
 72 73  1  0
 73 74  2  0
 74 75  1  0
 75 76  1  0
 76 77  1  0
 77 78  1  0
 78 79  1  0
 79 80  1  0
 80 81  1  0
 81 82  1  0
 82 83  1  0
 83 84  2  3
 84 85  1  0
 85 86  1  0
 86 87  2  0
  8  3  1  0
 45 30  1  0
 42 37  1  0
 75 65  1  0
M  RAD  8  13   2  31   3  35   2  50   2  53   3  62   2  67   2  68   2
M  RAD  6  77   2  78   2  80   2  82   2  85   2  86   2
M  END
$$$$
