
     RDKit          3D

 57 60  0  0  0  0  0  0  0  0999 V2000
   -6.1432    4.0120    0.3568 C   0  0  0  0  0  3  0  0  0  0  0  0
   -5.0829    4.1128   -0.7221 C   0  0  0  0  0  3  0  0  0  0  0  0
   -3.9717    3.1353   -0.3171 C   0  0  0  0  0  0  0  0  0  0  0  0
   -3.4789    3.6419    1.0449 C   0  0  0  0  0  0  0  0  0  0  0  0
   -2.8509    5.3338    0.8806 S   0  0  0  0  0  0  0  0  0  0  0  0
   -5.7587    3.2412    1.4259 O   0  0  0  0  0  0  0  0  0  0  0  0
   -5.5246    1.9235    1.1105 C   0  0  0  0  0  0  0  0  0  0  0  0
   -4.6499    1.7945   -0.1274 C   0  0  0  0  0  0  0  0  0  0  0  0
   -3.4681    0.4633    0.1695 S   0  0  0  0  0  0  0  0  0  0  0  0
   -2.7889    0.6649    1.8458 C   0  0  0  0  0  2  0  0  0  0  0  0
   -1.7353    1.5966    1.7318 O   0  0  0  0  0  0  0  0  0  0  0  0
   -0.7568    0.9660    0.9608 C   0  0  0  0  0  0  0  0  0  0  0  0
   -0.6443   -0.4650    1.5021 C   0  0  0  0  0  0  0  0  0  0  0  0
    0.8979   -0.7000    1.5972 C   0  0  1  0  0  0  0  0  0  0  0  0
    1.1481   -1.9829    1.9053 O   0  0  0  0  0  0  0  0  0  0  0  0
    2.3378   -2.4018    2.1913 C   0  0  0  0  0  0  0  0  0  0  0  0
    3.5389   -2.3379    1.4014 C   0  0  0  0  0  0  0  0  0  0  0  0
    4.1044   -1.0176    1.0383 C   0  0  0  0  0  0  0  0  0  0  0  0
    5.3614   -1.1959    0.2100 C   0  0  0  0  0  0  0  0  0  0  0  0
    4.9705   -1.9602   -1.0387 C   0  0  0  0  0  0  0  0  0  0  0  0
    6.3159   -2.0313    1.0162 C   0  0  0  0  0  0  0  0  0  0  0  0
    7.6022   -2.2658    0.2753 C   0  0  0  0  0  3  0  0  0  0  0  0
    8.2380   -0.9287   -0.0084 C   0  0  0  0  0  3  0  0  0  0  0  0
    7.2916    0.1915    0.3239 C   0  0  0  0  0  0  0  0  0  0  0  0
    7.8643    1.5316    0.0645 C   0  0  0  0  0  0  0  0  0  0  0  0
    9.0908    1.8611    0.8427 C   0  0  0  0  0  0  0  0  0  0  0  0
    9.6814    3.5344    0.4174 S   0  0  0  0  0  0  0  0  0  0  0  0
   11.1146    3.3411   -0.7011 C   0  0  0  0  0  0  0  0  0  0  0  0
   10.9767    1.9609   -1.3493 C   0  0  0  0  0  0  0  0  0  0  0  0
   11.0688    0.9061   -0.2768 C   0  0  0  0  0  0  0  0  0  0  0  0
   12.1693   -0.0820   -0.3919 C   0  0  0  0  0  0  0  0  0  0  0  0
   10.1939    0.8764    0.7224 C   0  0  0  0  0  0  0  0  0  0  0  0
   10.3358   -0.1684    1.7594 C   0  0  0  0  0  0  0  0  0  0  0  0
    1.3613   -0.2842    0.2153 C   0  0  0  0  0  0  0  0  0  0  0  0
    1.7207    1.0525    0.0916 C   0  0  0  0  0  0  0  0  0  0  0  0
    2.1332    1.5396   -1.1303 C   0  0  0  0  0  0  0  0  0  0  0  0
    2.1831    0.6917   -2.2134 C   0  0  0  0  0  0  0  0  0  0  0  0
    1.8247   -0.6179   -2.0659 C   0  0  0  0  0  0  0  0  0  0  0  0
    1.3988   -1.1607   -0.8461 C   0  0  0  0  0  0  0  0  0  0  0  0
    1.0382   -2.4910   -0.7120 O   0  0  0  0  0  0  0  0  0  0  0  0
   -0.2545   -2.9213   -0.2652 C   0  0  0  0  0  0  0  0  0  0  0  0
   -0.9688   -3.5620   -1.4369 C   0  0  0  0  0  0  0  0  0  0  0  0
   -2.1864   -4.2829   -0.8444 C   0  0  0  0  0  0  0  0  0  0  0  0
   -3.3012   -3.2782   -0.7353 C   0  0  0  0  0  0  0  0  0  0  0  0
   -4.2142   -3.5588    0.4215 C   0  0  0  0  0  0  0  0  0  0  0  0
   -5.8470   -4.1090   -0.0971 S   0  0  0  0  0  0  0  0  0  0  0  0
   -6.9759   -2.8389   -0.2050 O   0  0  0  0  0  0  0  0  0  0  0  0
   -8.0923   -3.1072    0.5566 C   0  0  0  0  0  0  0  0  0  0  0  0
   -9.0155   -1.9143    0.6261 C   0  0  0  0  0  0  0  0  0  0  0  0
   -9.5977   -1.6981   -0.7346 C   0  0  0  0  0  0  0  0  0  0  0  0
  -11.0959   -1.7592   -0.7730 C   0  0  0  0  0  0  0  0  0  0  0  0
   -9.0791   -0.6003   -1.3888 O   0  0  0  0  0  0  0  0  0  0  0  0
   -5.4815    1.5415   -1.3655 C   0  0  0  0  0  0  0  0  0  0  0  0
   -6.9248    1.3031   -1.0628 C   0  0  0  0  0  0  0  0  0  0  0  0
   -7.7724    2.1624   -1.7620 O   0  0  0  0  0  0  0  0  0  0  0  0
   -9.0881    1.7611   -1.5849 C   0  0  0  0  0  0  0  0  0  0  0  0
   -9.2127    0.5805   -0.6614 C   0  0  0  0  0  0  0  0  0  0  0  0
  1  2  1  0
  2  3  1  0
  3  4  1  0
  4  5  1  0
  1  6  1  0
  6  7  1  0
  7  8  1  0
  8  9  1  0
  9 10  1  0
 10 11  1  0
 11 12  1  0
 12 13  1  0
 13 14  1  0
 14 15  1  6
 15 16  1  0
 16 17  1  0
 17 18  1  0
 18 19  1  0
 19 20  1  0
 19 21  1  0
 21 22  1  0
 22 23  1  0
 23 24  1  0
 24 25  1  0
 25 26  1  0
 26 27  1  0
 27 28  1  0
 28 29  1  0
 29 30  1  0
 30 31  1  0
 30 32  2  0
 32 33  1  0
 14 34  1  0
 34 35  2  0
 35 36  1  0
 36 37  2  0
 37 38  1  0
 38 39  2  0
 39 40  1  0
 40 41  1  0
 41 42  1  0
 42 43  1  0
 43 44  1  0
 44 45  1  0
 45 46  1  0
 46 47  1  0
 47 48  1  0
 48 49  1  0
 49 50  1  0
 50 51  1  0
 50 52  1  0
  8 53  1  0
 53 54  1  0
 54 55  1  0
 55 56  1  0
 56 57  1  0
  8  3  1  0
 32 26  1  0
 39 34  1  0
 57 52  1  0
M  RAD  5   1   2   2   2  10   3  22   2  23   2
M  END
$$$$
