
     RDKit          3D

 16 15  0  0  0  0  0  0  0  0999 V2000
   -3.9873    1.7039   -1.1591 N   0  0  0  0  0  0  0  0  0  0  0  0
   -4.2516    1.2430    0.0387 C   0  0  0  0  0  0  0  0  0  0  0  0
   -5.5723    0.8065    0.4063 N   0  0  0  0  0  0  0  0  0  0  0  0
   -3.1403    1.2203    0.9201 N   0  0  0  0  0  0  0  0  0  0  0  0
   -1.8409    0.7420    0.5089 C   0  0  0  0  0  0  0  0  0  0  0  0
   -1.9373   -0.7500    0.2922 C   0  0  0  0  0  0  0  0  0  0  0  0
   -0.6126   -1.2725   -0.1333 C   0  0  0  0  0  0  0  0  0  0  0  0
    0.4780   -1.0056    0.9034 C   0  0  0  0  0  0  0  0  0  0  0  0
    1.7560   -1.6085    0.3000 C   0  0  0  0  0  0  0  0  0  0  0  0
    1.9636   -0.8722   -1.0076 C   0  0  0  0  0  0  0  0  0  0  0  0
    2.1271    0.6079   -0.8260 C   0  0  0  0  0  0  0  0  0  0  0  0
    3.2722    0.8489    0.0067 N   0  0  0  0  0  0  0  0  0  0  0  0
    3.5574    2.5504    0.2831 S   0  0  0  0  0  0  0  0  0  0  0  0
    5.0507    2.7952    0.0138 O   0  0  0  0  0  0  0  0  0  0  0  0
    1.3970   -3.0229   -0.0614 C   0  0  0  0  0  0  0  0  0  0  0  0
    1.7401   -3.9864    0.5934 O   0  0  0  0  0  0  0  0  0  0  0  0
  1  2  2  0
  2  3  1  0
  2  4  1  0
  4  5  1  0
  5  6  1  0
  6  7  1  0
  7  8  1  0
  8  9  1  0
  9 10  1  0
 10 11  1  0
 11 12  1  0
 12 13  1  0
 13 14  2  0
  9 15  1  0
 15 16  2  0
M  END
$$$$
