
     RDKit          3D

  9  9  0  0  0  0  0  0  0  0999 V2000
    2.1505    0.1130   -0.3389 O   0  0  0  0  0  0  0  0  0  0  0  0
    1.4204   -0.7281    0.3642 O   0  0  0  0  0  0  0  0  0  0  0  0
    0.3717   -1.2155   -0.4288 C   0  0  0  0  0  3  0  0  0  0  0  0
   -0.7865   -1.2065    0.3267 O   0  0  0  0  0  0  0  0  0  0  0  0
   -1.5966   -0.1168    0.0991 C   0  0  2  0  0  0  0  0  0  0  0  0
   -2.6266   -0.4563   -0.9435 C   0  0  0  0  0  0  0  0  0  0  0  0
   -0.8544    1.1221   -0.2927 C   0  0  0  0  0  3  0  0  0  0  0  0
    0.4535    1.2767    0.4458 C   0  0  0  0  0  3  0  0  0  0  0  0
    1.4681    1.2116   -0.5240 O   0  0  0  0  0  0  0  0  0  0  0  0
  1  2  1  0
  2  3  1  0
  3  4  1  0
  4  5  1  0
  5  6  1  6
  5  7  1  0
  7  8  1  0
  8  9  1  0
  9  1  1  0
M  RAD  3   3   2   7   2   8   2
M  END
$$$$
