
     RDKit          3D

  3  2  0  0  0  0  0  0  0  0999 V2000
   -1.2151   -0.0416   -0.0000 O   0  0  0  0  0  0  0  0  0  0  0  0
   -0.0092    0.0823   -0.0000 N   0  0  0  0  0  4  0  0  0  0  0  0
    1.2243   -0.0407    0.0000 N   0  0  0  0  0  2  0  0  0  0  0  0
  1  2  2  0
  2  3  2  0
M  CHG  2   2   1   3  -1
M  END
$$$$
