
     RDKit          3D

  3  2  0  0  0  0  0  0  0  0999 V2000
   -1.1521   -0.2286   -0.0000 O   0  0  0  0  0  0  0  0  0  0  0  0
   -0.0033    0.4554   -0.0000 S   0  0  0  0  0  0  0  0  0  0  0  0
    1.1554   -0.2268    0.0000 O   0  0  0  0  0  0  0  0  0  0  0  0
  1  2  2  0
  2  3  2  0
M  END
$$$$
