
     RDKit          3D

 19 19  0  0  0  0  0  0  0  0999 V2000
   -0.5115    2.2641   -1.0145 C   0  0  0  0  0  0  0  0  0  0  0  0
   -1.2316    1.2514   -0.5569 C   0  0  0  0  0  0  0  0  0  0  0  0
   -2.4169    0.8397   -1.3698 C   0  0  0  0  0  0  0  0  0  0  0  0
   -3.6674    0.7578   -0.5295 C   0  0  0  0  0  0  0  0  0  0  0  0
   -3.3597    0.5720    0.9388 C   0  0  1  0  0  0  0  0  0  0  0  0
   -4.5170   -0.0456    1.6842 C   0  0  0  0  0  0  0  0  0  0  0  0
   -2.1287   -0.3417    1.0122 C   0  0  0  0  0  0  0  0  0  0  0  0
   -2.3215   -1.3544   -0.1238 C   0  0  0  0  0  0  0  0  0  0  0  0
   -2.0210   -1.0272    2.3397 C   0  0  0  0  0  0  0  0  0  0  0  0
   -0.9471    0.5179    0.6775 C   0  0  1  0  0  0  0  0  0  0  0  0
    0.3558   -0.2021    0.7090 C   0  0  0  0  0  3  0  0  0  0  0  0
    0.5236   -1.2344   -0.3498 C   0  0  0  0  0  0  0  0  0  0  0  0
    1.8808   -1.8835   -0.1931 C   0  0  0  0  0  0  0  0  0  0  0  0
    2.9974   -0.9419   -0.3091 C   0  0  0  0  0  0  0  0  0  0  0  0
    4.3145   -1.4678   -0.1751 N   0  0  0  0  0  0  0  0  0  0  0  0
    4.7792   -2.4621   -1.0998 C   0  0  0  0  0  0  0  0  0  0  0  0
    2.8164    0.3140   -0.5232 C   0  0  0  0  0  0  0  0  0  0  0  0
    2.7941    1.6063   -0.5828 C   0  0  0  0  0  0  0  0  0  0  0  0
    2.6605    2.8373   -0.5341 O   0  0  0  0  0  0  0  0  0  0  0  0
  1  2  2  0
  2  3  1  0
  3  4  1  0
  4  5  1  0
  5  6  1  1
  5  7  1  0
  7  8  1  0
  7  9  1  0
  7 10  1  0
 10 11  1  6
 11 12  1  0
 12 13  1  0
 13 14  1  0
 14 15  1  0
 15 16  1  0
 14 17  2  0
 17 18  2  0
 18 19  2  0
 10  2  1  0
M  RAD  1  11   2
M  END
$$$$
