
     RDKit          3D

 14 14  0  0  0  0  0  0  0  0999 V2000
    3.6422    1.1228   -0.2103 C   0  0  0  0  0  0  0  0  0  0  0  0
    3.8225   -0.2160   -0.5930 O   0  0  0  0  0  0  0  0  0  0  0  0
    3.2484   -0.9817    0.2878 C   0  0  0  0  0  3  0  0  0  0  0  0
    1.8484   -1.1252    0.2742 O   0  0  0  0  0  0  0  0  0  0  0  0
    1.3462    0.1197    0.8507 C   0  0  2  0  0  0  0  0  0  0  0  0
    1.8466   -0.1359    2.3371 C   0  0  0  0  0  0  0  0  0  0  0  0
   -0.1673   -0.4130    1.1433 C   0  0  0  0  0  3  0  0  0  0  0  0
   -1.1454    0.3981    0.3583 C   0  0  1  0  0  0  0  0  0  0  0  0
   -0.9818    0.3804   -1.0501 N   0  0  0  0  0  0  0  0  0  0  0  0
   -1.2940   -0.9057   -1.6353 C   0  0  0  0  0  3  0  0  0  0  0  0
   -2.6962   -1.3507   -1.2635 C   0  0  0  0  0  0  0  0  0  0  0  0
   -3.6196   -0.1413   -1.2998 C   0  0  0  0  0  2  0  0  0  0  0  0
   -3.4275    0.5981    0.0103 C   0  0  0  0  0  0  0  0  0  0  0  0
   -2.4225    0.0529    0.7901 O   0  0  0  0  0  0  0  0  0  0  0  0
  1  2  1  0
  2  3  1  0
  3  4  1  0
  4  5  1  0
  5  6  1  1
  5  7  1  0
  8  7  1  1
  8  9  1  0
  9 10  1  0
 10 11  1  0
 11 12  1  0
 12 13  1  0
  8 14  1  0
 14 13  1  0
M  RAD  4   3   2   7   2  10   2  12   3
M  END
$$$$
