
     RDKit          2D

 61 62  0  0  0  0  0  0  0  0999 V2000
   -2.9833    7.6276    0.0000 C   0  0  0  0  0  0  0  0  0  0  0  0
   -1.4940    7.4485    0.0000 C   0  0  0  0  0  0  0  0  0  0  0  0
   -0.5943    8.6487    0.0000 C   0  0  0  0  0  0  0  0  0  0  0  0
   -0.9045    6.0692    0.0000 C   0  0  0  0  0  0  0  0  0  0  0  0
    0.5848    5.8901    0.0000 C   0  0  0  0  0  0  0  0  0  0  0  0
    1.1743    4.5108    0.0000 C   0  0  0  0  0  0  0  0  0  0  0  0
    2.6502    4.7787    0.0000 C   0  0  0  0  0  0  0  0  0  0  0  0
    2.7175    6.2772    0.0000 C   0  0  0  0  0  0  0  0  0  0  0  0
    4.0962    4.3796    0.0000 C   0  0  0  0  0  3  0  0  0  0  0  0
    5.2258    3.3927    0.0000 C   0  0  0  0  0  0  0  0  0  0  0  0
    5.8153    2.0134    0.0000 C   0  0  0  0  0  0  0  0  0  0  0  0
    5.7480    0.5149    0.0000 C   0  0  0  0  0  0  0  0  0  0  0  0
    7.1940    0.1159    0.0000 C   0  0  0  0  0  0  0  0  0  0  0  0
    5.0372   -0.8060    0.0000 C   0  0  0  0  0  3  0  0  0  0  0  0
    3.8237   -1.6876    0.0000 C   0  0  0  0  0  0  0  0  0  0  0  0
    1.9635   -1.4266    0.0000 C   0  0  0  0  0  0  0  0  0  0  0  0
    2.4271    0.0000    0.0000 C   0  0  0  0  0  3  0  0  0  0  0  0
    1.9635    1.4266    0.0000 C   0  0  0  0  0  0  0  0  0  0  0  0
    0.7500    2.3083    0.0000 C   0  0  0  0  0  0  0  0  0  0  0  0
    1.2135    3.7348    0.0000 C   0  0  0  0  0  0  0  0  0  0  0  0
    0.2098    4.8496    0.0000 C   0  0  0  0  0  0  0  0  0  0  0  0
    0.7500   -2.3083    0.0000 O   0  0  0  0  0  0  0  0  0  0  0  0
   -0.7500   -2.3083    0.0000 C   0  0  0  0  0  0  0  0  0  0  0  0
   -1.9635   -1.4266    0.0000 C   0  0  0  0  0  3  0  0  0  0  0  0
   -2.4271    0.0000    0.0000 O   0  0  0  0  0  0  0  0  0  0  0  0
   -1.9635    1.4266    0.0000 C   0  0  0  0  0  0  0  0  0  0  0  0
   -0.7500    2.3083    0.0000 C   0  0  0  0  0  0  0  0  0  0  0  0
   -0.0392    3.6292    0.0000 C   0  0  0  0  0  0  0  0  0  0  0  0
   -1.1688    4.6161    0.0000 C   0  0  0  0  0  0  0  0  0  0  0  0
   -2.5883    4.1312    0.0000 C   0  0  0  0  0  0  0  0  0  0  0  0
   -3.7179    5.1182    0.0000 C   0  0  0  0  0  0  0  0  0  0  0  0
   -3.4280    6.5899    0.0000 O   0  0  0  0  0  0  0  0  0  0  0  0
   -4.5576    7.5768    0.0000 O   0  0  0  0  0  0  0  0  0  0  0  0
   -4.2677    9.0485    0.0000 C   0  0  0  0  0  2  0  0  0  0  0  0
   -5.1374    4.6333    0.0000 C   0  0  0  0  0  0  0  0  0  0  0  0
   -6.2670    5.6203    0.0000 C   0  0  0  0  0  0  0  0  0  0  0  0
   -5.9771    7.0920    0.0000 O   0  0  0  0  0  0  0  0  0  0  0  0
   -7.6865    5.1354    0.0000 C   0  0  0  0  0  2  0  0  0  0  0  0
   -8.8161    6.1223    0.0000 O   0  0  0  0  0  0  0  0  0  0  0  0
  -10.2356    5.6375    0.0000 C   0  0  0  0  0  3  0  0  0  0  0  0
  -11.3652    6.6244    0.0000 O   0  0  0  0  0  0  0  0  0  0  0  0
  -12.7847    6.1396    0.0000 C   0  0  0  0  0  0  0  0  0  0  0  0
  -13.9143    7.1265    0.0000 C   0  0  0  0  0  0  0  0  0  0  0  0
  -15.3338    6.6417    0.0000 C   0  0  0  0  0  3  0  0  0  0  0  0
  -16.4634    7.6286    0.0000 C   0  0  0  0  0  0  0  0  0  0  0  0
  -17.8829    7.1438    0.0000 C   0  0  0  0  0  0  0  0  0  0  0  0
  -19.0125    8.1307    0.0000 C   0  0  0  0  0  0  0  0  0  0  0  0
  -20.4320    7.6459    0.0000 C   0  0  0  0  0  3  0  0  0  0  0  0
  -21.5616    8.6328    0.0000 C   0  0  0  0  0  3  0  0  0  0  0  0
  -22.9811    8.1480    0.0000 C   0  0  0  0  0  0  0  0  0  0  0  0
  -24.1107    9.1349    0.0000 C   0  0  0  0  0  0  0  0  0  0  0  0
  -25.5302    8.6501    0.0000 C   0  0  0  0  0  3  0  0  0  0  0  0
  -26.6598    9.6370    0.0000 C   0  0  0  0  0  0  0  0  0  0  0  0
  -28.0793    9.1522    0.0000 C   0  0  0  0  0  3  0  0  0  0  0  0
  -29.2089   10.1391    0.0000 C   0  0  0  0  0  0  0  0  0  0  0  0
  -30.6284    9.6543    0.0000 C   0  0  0  0  0  0  0  0  0  0  0  0
  -31.7580   10.6412    0.0000 C   0  0  0  0  0  3  0  0  0  0  0  0
  -33.1775   10.1564    0.0000 O   0  0  0  0  0  0  0  0  0  0  0  0
  -34.3071   11.1433    0.0000 C   0  0  0  0  0  3  0  0  0  0  0  0
  -35.7266   10.6585    0.0000 C   0  0  0  0  0  3  0  0  0  0  0  0
  -36.8562   11.6454    0.0000 C   0  0  0  0  0  0  0  0  0  0  0  0
  1  2  1  0
  2  3  1  0
  2  4  1  0
  4  5  1  0
  5  6  1  0
  6  7  1  0
  7  8  1  1
  7  9  1  0
  9 10  1  0
 10 11  1  0
 11 12  1  0
 12 13  1  6
 12 14  1  0
 14 15  1  0
 16 15  1  6
 16 17  1  0
 17 18  1  0
 18 19  1  0
 19 20  1  0
 20 21  1  0
 16 22  1  0
 22 23  1  0
 23 24  1  0
 24 25  1  0
 25 26  1  0
 26 27  1  0
 27 28  1  0
 28 29  1  6
 29 30  1  0
 31 30  1  1
 31 32  1  0
 32 33  1  0
 33 34  1  0
 31 35  1  0
 35 36  1  0
 36 37  1  6
 36 38  1  0
 38 39  1  0
 39 40  1  0
 40 41  1  0
 41 42  1  0
 42 43  1  0
 43 44  1  0
 44 45  1  0
 45 46  1  0
 46 47  1  0
 47 48  1  0
 48 49  1  0
 49 50  1  0
 50 51  1  0
 51 52  1  0
 52 53  1  0
 53 54  1  0
 54 55  1  0
 55 56  1  0
 56 57  1  0
 57 58  1  0
 58 59  1  0
 59 60  1  0
 60 61  1  0
 28  6  1  0
 27 19  1  0
M  RAD  8   9   2  14   2  17   2  24   2  34   3  38   3  40   2  44   2
M  RAD  7  48   2  49   2  52   2  54   2  57   2  59   2  60   2
M  END
$$$$
