
     RDKit          3D

 33 36  0  0  0  0  0  0  0  0999 V2000
   -7.1893    3.1899    0.6313 C   0  0  0  0  0  0  0  0  0  0  0  0
   -6.8506    2.0404    0.0715 C   0  0  0  0  0  0  0  0  0  0  0  0
   -5.6585    1.3484    0.5748 C   0  0  0  0  0  0  0  0  0  0  0  0
   -4.9707    1.8326    1.5168 O   0  0  0  0  0  0  0  0  0  0  0  0
   -5.2294    0.1434    0.0508 O   0  0  0  0  0  0  0  0  0  0  0  0
   -4.0601   -0.5250    0.5521 C   0  0  1  0  0  0  0  0  0  0  0  0
   -3.9114   -1.7694   -0.2393 C   0  0  0  0  0  0  0  0  0  0  0  0
   -2.5383   -2.2649   -0.4448 C   0  0  1  0  0  0  0  0  0  0  0  0
   -1.8867   -1.8555   -1.7253 C   0  0  0  0  0  0  0  0  0  0  0  0
   -1.6348   -2.1720    0.7569 C   0  0  1  0  0  0  0  0  0  0  0  0
   -0.8775   -3.4152    1.0343 C   0  0  0  0  0  0  0  0  0  0  0  0
    0.1711   -3.7121   -0.0310 C   0  0  0  0  0  0  0  0  0  0  0  0
    1.4907   -3.2563    0.5517 C   0  0  0  0  0  3  0  0  0  0  0  0
    1.4269   -1.7846    0.7227 C   0  0  0  0  0  0  0  0  0  0  0  0
    2.5778   -1.2262    0.3003 C   0  0  0  0  0  0  0  0  0  0  0  0
    2.7332    0.2215    0.3781 C   0  0  0  0  0  0  0  0  0  0  0  0
    3.8182    0.8179   -0.0132 C   0  0  0  0  0  0  0  0  0  0  0  0
    3.8949    2.2967    0.1002 C   0  0  0  0  0  0  0  0  0  0  0  0
    5.2632    2.7665   -0.2902 C   0  0  1  0  0  0  0  0  0  0  0  0
    5.5589    4.1576    0.2569 C   0  0  0  0  0  0  0  0  0  0  0  0
    6.3191    1.8449    0.2768 C   0  0  0  0  0  0  0  0  0  0  0  0
    6.3283    0.5100   -0.4327 C   0  0  2  0  0  0  0  0  0  0  0  0
    6.9457    0.6206   -1.6760 O   0  0  0  0  0  0  0  0  0  0  0  0
    4.9297    0.0238   -0.5521 C   0  0  0  0  0  0  0  0  0  0  0  0
    4.6118   -1.1147   -1.1310 C   0  0  0  0  0  0  0  0  0  0  0  0
    0.4607   -0.8138    1.2219 C   0  0  0  0  0  0  0  0  0  0  0  0
    0.5540    0.4242    0.3018 C   0  0  0  0  0  0  0  0  0  0  0  0
   -0.4503   -0.3445   -0.5778 C   0  0  0  0  0  0  0  0  0  0  0  0
   -0.9282   -0.9088    0.7681 C   0  0  0  0  0  0  0  0  0  0  0  0
   -1.7997    0.1471    1.4220 C   0  0  0  0  0  0  0  0  0  0  0  0
   -2.9263    0.4284    0.4827 C   0  0  1  0  0  0  0  0  0  0  0  0
   -2.5136    0.8379   -0.8885 C   0  0  0  0  0  0  0  0  0  0  0  0
   -3.6588    1.5110   -1.6079 C   0  0  0  0  0  2  0  0  0  0  0  0
  1  2  2  0
  2  3  1  0
  3  4  2  0
  3  5  1  0
  6  5  1  6
  6  7  1  0
  7  8  1  0
  8  9  1  6
  8 10  1  0
 10 11  1  6
 11 12  1  0
 12 13  1  0
 13 14  1  0
 14 15  2  0
 15 16  1  0
 16 17  2  0
 17 18  1  0
 18 19  1  0
 19 20  1  1
 19 21  1  0
 21 22  1  0
 22 23  1  6
 22 24  1  0
 24 25  2  0
 14 26  1  0
 26 27  1  0
 27 28  1  0
 28 29  1  0
 29 30  1  0
  6 31  1  0
 31 32  1  6
 32 33  1  0
 29 10  1  0
 24 17  1  0
 29 26  1  0
 31 30  1  0
M  RAD  2  13   2  33   3
M  END
$$$$
