
     RDKit          3D

 15 17  0  0  0  0  0  0  0  0999 V2000
   -0.2142   -0.6356    1.7569 C   0  0  0  0  0  0  0  0  0  0  0  0
   -1.6913   -0.3124    1.5982 C   0  0  2  0  0  0  0  0  0  0  0  0
   -2.5800   -1.2433    2.3480 C   0  0  0  0  0  0  0  0  0  0  0  0
   -1.9696   -0.3729    0.0732 C   0  0  2  0  0  0  0  0  0  0  0  0
   -1.0143   -1.6023   -0.1629 C   0  0  0  0  0  0  0  0  0  0  0  0
    0.1848   -0.8104    0.3293 C   0  0  2  0  0  0  0  0  0  0  0  0
    1.5036   -1.0446   -0.0713 C   0  0  0  0  0  0  0  0  0  0  0  0
    2.4326   -0.8745    0.9658 O   0  0  0  0  0  0  0  0  0  0  0  0
    1.9643   -0.1696   -1.2107 C   0  0  2  0  0  0  0  0  0  0  0  0
    2.3533    1.2614   -0.7812 C   0  0  0  0  0  0  0  0  0  0  0  0
    1.0569    1.9534   -0.8860 O   0  0  0  0  0  0  0  0  0  0  0  0
    0.7331    0.2048   -2.0544 C   0  0  0  0  0  0  0  0  0  0  0  0
    0.1195    0.9625   -1.1046 C   0  0  0  0  0  0  0  0  0  0  0  0
   -1.1533    0.8004   -0.4707 C   0  0  0  0  0  0  0  0  0  0  0  0
   -1.7255    1.8832   -0.3295 O   0  0  0  0  0  0  0  0  0  0  0  0
  1  2  1  0
  2  3  1  1
  2  4  1  0
  4  5  1  0
  5  6  1  0
  6  7  1  0
  7  8  1  0
  7  9  1  0
  9 10  1  1
 10 11  1  0
  9 12  1  0
 12 13  2  0
 13 14  1  0
 14 15  2  0
  6  1  1  1
  4 14  1  6
 13 11  1  0
M  END
$$$$
