
     RDKit          3D

 40 40  0  0  0  0  0  0  0  0999 V2000
   -5.3233    1.4198   -0.4016 C   0  0  0  0  0  0  0  0  0  0  0  0
   -5.9271    2.4144   -1.1253 O   0  0  0  0  0  0  0  0  0  0  0  0
   -6.4218    3.4821   -0.3174 C   0  0  0  0  0  0  0  0  0  0  0  0
   -6.8263    3.2429    0.8771 C   0  0  0  0  0  0  0  0  0  0  0  0
   -7.0059    2.2547    1.7837 C   0  0  0  0  0  0  0  0  0  0  0  0
   -6.5574    1.2029    2.3490 C   0  0  0  0  0  0  0  0  0  0  0  0
   -5.5727    0.4093    2.3878 N   0  0  0  0  0  0  0  0  0  0  0  0
   -4.7608   -0.5271    2.2023 C   0  0  0  0  0  0  0  0  0  0  0  0
   -4.9008   -1.5838    1.2789 C   0  0  0  0  0  0  0  0  0  0  0  0
   -3.8165   -2.0747    0.4796 C   0  0  0  0  0  0  0  0  0  0  0  0
   -2.9034   -3.0660    1.1553 C   0  0  0  0  0  0  0  0  0  0  0  0
   -3.6450   -1.6669   -0.7509 C   0  0  0  0  0  0  0  0  0  0  0  0
   -2.5815   -1.9026   -1.4007 N   0  0  0  0  0  0  0  0  0  0  0  0
   -1.8331   -0.7459   -1.8470 C   0  0  0  0  0  3  0  0  0  0  0  0
   -0.3786   -0.9001   -1.5501 C   0  0  1  0  0  0  0  0  0  0  0  0
    0.3586   -1.8143   -2.3029 C   0  0  0  0  0  0  0  0  0  0  0  0
   -0.2183   -3.4792   -2.3342 S   0  0  0  0  0  0  0  0  0  0  0  0
   -0.3523   -4.4303   -0.9206 C   0  0  0  0  0  0  0  0  0  0  0  0
   -1.2227   -5.4702   -0.8448 C   0  0  0  0  0  0  0  0  0  0  0  0
    0.3755   -4.1803    0.3888 C   0  0  0  0  0  0  0  0  0  0  0  0
    0.2818    0.6465   -1.5067 C   0  0  0  0  0  0  0  0  0  0  0  0
    1.3351    0.4977   -0.6102 C   0  0  0  0  0  2  0  0  0  0  0  0
    1.7689    1.3578    0.5990 C   0  0  0  0  0  0  0  0  0  0  0  0
    2.1585   -0.0248    1.7851 S   0  0  0  0  0  0  0  0  0  0  0  0
    1.9181   -1.3821    0.6702 C   0  0  0  0  0  0  0  0  0  0  0  0
    2.9848   -1.0148   -0.5178 C   0  0  0  0  0  0  0  0  0  0  0  0
    3.8974   -0.8510   -0.4586 C   0  0  0  0  0  0  0  0  0  0  0  0
    5.2899   -0.6035   -0.3837 C   0  0  0  0  0  0  0  0  0  0  0  0
    6.6014   -0.3739   -0.2965 C   0  0  0  0  0  0  0  0  0  0  0  0
    7.6209   -0.1878   -0.2138 C   0  0  0  0  0  0  0  0  0  0  0  0
    9.2967    0.1395   -0.0599 C   0  0  0  0  0  3  0  0  0  0  0  0
    9.0700    1.5821    0.9706 C   0  0  0  0  0  0  0  0  0  0  0  0
    9.4524    2.0986    0.2995 C   0  0  0  0  0  0  0  0  0  0  0  0
   10.1227    2.9983   -0.8328 C   0  0  0  0  0  0  0  0  0  0  0  0
   10.8900    4.0235   -2.0820 S   0  0  0  0  0  0  0  0  0  0  0  0
   -1.0913    1.1566   -0.7960 C   0  0  0  0  0  0  0  0  0  0  0  0
   -1.5370    1.3173   -0.5726 C   0  0  0  0  0  0  0  0  0  0  0  0
   -2.9276    1.8082    0.1174 C   0  0  0  0  0  0  0  0  0  0  0  0
   -3.2633    1.9243    0.2820 C   0  0  0  0  0  0  0  0  0  0  0  0
   -4.3561    2.3028    0.8117 C   0  0  0  0  0  0  0  0  0  0  0  0
  1  2  1  0
  2  3  1  0
  3  4  2  3
  4  5  1  0
  5  6  2  3
  6  7  1  0
  7  8  2  3
  8  9  1  0
  9 10  1  0
 10 11  1  0
 10 12  2  0
 12 13  2  0
 13 14  1  0
 14 15  1  0
 15 16  1  6
 16 17  1  0
 17 18  1  0
 18 19  2  0
 18 20  1  0
 15 21  1  0
 21 22  1  0
 22 23  1  0
 23 24  2  3
 24 25  1  0
 25 26  1  0
 26 27  1  0
 27 28  3  0
 28 29  1  0
 29 30  3  0
 30 31  1  0
 31 32  1  0
 32 33  1  0
 33 34  3  0
 34 35  1  0
 21 36  1  0
 36 37  3  0
 37 38  1  0
 38 39  3  0
 39 40  1  0
 40  1  1  0
M  RAD  3  14   2  22   3  31   2
M  END
$$$$
