
     RDKit          3D

 21 20  0  0  0  0  0  0  0  0999 V2000
   -3.3028    4.7169    0.8779 C   0  0  0  0  0  0  0  0  0  0  0  0
   -3.1332    3.6437   -0.0055 O   0  0  0  0  0  0  0  0  0  0  0  0
   -1.8272    3.1770    0.2016 C   0  0  0  0  0  3  0  0  0  0  0  0
   -1.8393    1.7492    0.6985 C   0  0  0  0  0  0  0  0  0  0  0  0
   -1.8013    0.8508   -0.4939 C   0  0  0  0  0  0  0  0  0  0  0  0
   -1.8086   -0.6045   -0.2055 C   0  0  2  0  0  0  0  0  0  0  0  0
   -2.9258   -1.0401    0.4929 O   0  0  0  0  0  0  0  0  0  0  0  0
   -4.1180   -0.8171   -0.1481 C   0  0  0  0  0  0  0  0  0  0  0  0
   -4.2139   -1.4435   -1.3820 O   0  0  0  0  0  0  0  0  0  0  0  0
   -0.5854   -1.1219    0.5104 C   0  0  2  0  0  0  0  0  0  0  0  0
    0.6222   -0.8409   -0.3556 C   0  0  0  0  0  3  0  0  0  0  0  0
    1.9048   -1.3293    0.2912 C   0  0  0  0  0  0  0  0  0  0  0  0
    3.0697   -1.0316   -0.6133 C   0  0  0  0  0  0  0  0  0  0  0  0
    3.2268    0.4513   -0.8939 C   0  0  0  0  0  0  0  0  0  0  0  0
    3.4560    1.2111    0.4189 C   0  0  0  0  0  0  0  0  0  0  0  0
    4.6328    0.6727    0.9680 O   0  0  0  0  0  0  0  0  0  0  0  0
    5.6377    0.9095    0.0098 C   0  0  0  0  0  3  0  0  0  0  0  0
    6.7774    1.2969    0.7147 O   0  0  0  0  0  0  0  0  0  0  0  0
   -0.8392   -2.9314    0.6773 S   0  0  0  0  0  0  0  0  0  0  0  0
   -0.8259   -3.8833   -1.1954 S   0  0  0  0  0  0  0  0  0  0  0  0
   -2.1067   -3.6355   -1.9918 O   0  0  0  0  0  0  0  0  0  0  0  0
  1  2  1  0
  2  3  1  0
  3  4  1  0
  4  5  1  0
  6  5  1  1
  6  7  1  0
  7  8  1  0
  8  9  1  0
  6 10  1  0
 10 11  1  6
 11 12  1  0
 12 13  1  0
 13 14  1  0
 14 15  1  0
 15 16  1  0
 16 17  1  0
 17 18  1  0
 10 19  1  0
 19 20  1  0
 20 21  2  0
M  RAD  3   3   2  11   2  17   2
M  END
$$$$
