
     RDKit          3D

 26 29  0  0  0  0  0  0  0  0999 V2000
    8.7317    1.9587    1.3939 C   0  0  0  0  0  0  0  0  0  0  0  0
    7.8907    1.1168    0.6514 O   0  0  0  0  0  0  0  0  0  0  0  0
    6.5107    1.0868    0.8026 C   0  0  0  0  0  0  0  0  0  0  0  0
    5.7718    0.4709   -0.1091 C   0  0  0  0  0  0  0  0  0  0  0  0
    4.3244    0.4125    0.0049 C   0  0  0  0  0  0  0  0  0  0  0  0
    3.6204   -0.2085   -0.9203 C   0  0  0  0  0  0  0  0  0  0  0  0
    2.1511   -0.2841   -0.8315 C   0  0  0  0  0  0  0  0  0  0  0  0
    1.6622   -1.7181   -0.7694 C   0  0  0  0  0  0  0  0  0  0  0  0
    2.1974   -2.4651    0.4149 C   0  0  0  0  0  0  0  0  0  0  0  0
    0.1522   -1.7548   -0.8652 C   0  0  0  0  0  0  0  0  0  0  0  0
   -0.2127   -1.1770   -2.0837 O   0  0  0  0  0  0  0  0  0  0  0  0
   -1.4673   -1.1530   -2.6277 C   0  0  0  0  0  0  0  0  0  0  0  0
   -1.5728   -1.0701   -3.8799 O   0  0  0  0  0  0  0  0  0  0  0  0
   -2.7260   -1.2182   -1.8385 C   0  0  0  0  0  0  0  0  0  0  0  0
   -3.2425    0.1804   -1.6417 C   0  0  0  0  0  0  0  0  0  0  0  0
   -4.4469    0.2316   -0.7485 C   0  0  0  0  0  0  0  0  0  0  0  0
   -4.2106    1.2569    0.3874 C   0  0  0  0  0  0  0  0  0  0  0  0
   -3.4251    2.3373   -0.0635 C   0  0  0  0  0  0  0  0  0  0  0  0
   -2.3904    1.2657    0.8046 P   0  0  0  0  0  0  0  0  0  0  0  0
   -2.2955    1.9982    2.5181 C   0  0  0  0  0  0  0  0  0  0  0  0
   -4.1028    1.7259    2.9636 P   0  0  0  0  0  0  0  0  0  0  0  0
   -4.5421    0.6338    1.6152 N   0  0  0  0  0  0  0  0  0  0  0  0
   -3.8754   -0.6564    1.6923 C   0  0  0  0  0  0  0  0  0  0  0  0
   -2.5268   -0.5220    1.0998 C   0  0  0  0  0  0  0  0  0  0  0  0
   -1.6010   -1.3790    0.8179 C   0  0  0  0  0  0  0  0  0  0  0  0
   -0.3746   -1.0690    0.2529 O   0  0  0  0  0  0  0  0  0  0  0  0
  1  2  1  0
  2  3  1  0
  3  4  2  3
  4  5  1  0
  5  6  2  3
  6  7  1  0
  7  8  1  0
  8  9  1  0
  8 10  1  0
 10 11  1  0
 11 12  1  0
 12 13  2  0
 12 14  1  0
 14 15  1  0
 15 16  1  0
 16 17  1  0
 17 18  1  0
 18 19  1  0
 19 20  1  0
 20 21  1  0
 21 22  1  0
 22 23  1  0
 23 24  1  0
 24 25  2  3
 25 26  1  0
 26 10  1  0
 19 17  1  0
 22 17  1  0
 24 19  1  0
M  END
$$$$
