
     RDKit          3D

 26 26  0  0  0  0  0  0  0  0999 V2000
   -7.9475   -0.9574    1.9725 C   0  0  0  0  0  0  0  0  0  0  0  0
   -7.6229    0.0294    0.8682 C   0  0  0  0  0  3  0  0  0  0  0  0
   -6.1202    0.1859    0.8300 C   0  0  0  0  0  0  0  0  0  0  0  0
   -5.6984    1.1621   -0.2529 C   0  0  2  0  0  0  0  0  0  0  0  0
   -6.1144    0.7237   -1.5127 O   0  0  0  0  0  0  0  0  0  0  0  0
   -4.1831    1.1806   -0.2556 C   0  0  2  0  0  0  0  0  0  0  0  0
   -3.6827    2.0362   -1.2325 O   0  0  0  0  0  0  0  0  0  0  0  0
   -3.7262   -0.2485   -0.4803 C   0  0  1  0  0  0  0  0  0  0  0  0
   -4.2211   -0.6106   -1.7540 O   0  0  0  0  0  0  0  0  0  0  0  0
   -2.2048   -0.2433   -0.4990 C   0  0  0  0  0  3  0  0  0  0  0  0
   -1.7867    0.6644   -1.6351 C   0  0  0  0  0  3  0  0  0  0  0  0
   -0.3138    0.5663   -1.8572 C   0  0  0  0  0  3  0  0  0  0  0  0
    0.5057   -0.4309   -0.5810 S   0  0  0  0  0  0  0  0  0  0  0  0
    2.2641   -0.4739   -0.9558 C   0  0  0  0  0  3  0  0  0  0  0  0
    3.0513   -1.2847    0.0517 C   0  0  0  0  0  0  0  0  0  0  0  0
    4.5090   -1.2282   -0.3957 C   0  0  1  0  0  0  0  0  0  0  0  0
    4.8186   -2.1981   -1.3169 O   0  0  0  0  0  0  0  0  0  0  0  0
    4.8178    0.1770   -0.8884 C   0  0  0  0  0  0  0  0  0  0  0  0
    6.0168    0.6302   -0.3655 O   0  0  0  0  0  0  0  0  0  0  0  0
    5.8617    1.4149    0.6779 O   0  0  0  0  0  0  0  0  0  0  0  0
    5.0698    0.8239    1.6564 C   0  0  2  0  0  0  0  0  0  0  0  0
    5.5248   -0.4238    2.0462 O   0  0  0  0  0  0  0  0  0  0  0  0
    3.6509    0.7990    1.1559 C   0  0  2  0  0  0  0  0  0  0  0  0
    2.8889    1.8623    1.6237 O   0  0  0  0  0  0  0  0  0  0  0  0
    2.9825   -0.5342    1.3694 C   0  0  1  0  0  0  0  0  0  0  0  0
    1.6601   -0.2993    1.7310 O   0  0  0  0  0  0  0  0  0  0  0  0
  1  2  1  0
  2  3  1  0
  3  4  1  0
  4  5  1  6
  4  6  1  0
  6  7  1  6
  6  8  1  0
  8  9  1  6
  8 10  1  0
 10 11  1  0
 11 12  1  0
 12 13  1  0
 13 14  1  0
 14 15  1  0
 15 16  1  0
 16 17  1  6
 16 18  1  0
 18 19  1  0
 19 20  1  0
 20 21  1  0
 21 22  1  6
 21 23  1  0
 23 24  1  1
 23 25  1  0
 25 26  1  6
 25 15  1  0
M  RAD  5   2   2  10   2  11   2  12   2  14   2
M  END
$$$$
