
     RDKit          3D

 27 31  0  0  0  0  0  0  0  0999 V2000
    3.4760    0.7890   -1.2805 C   0  0  0  0  0  0  0  0  0  0  0  0
    2.0481    1.2379   -1.0955 C   0  0  0  0  0  3  0  0  0  0  0  0
    2.0077    2.2357    0.0434 C   0  0  0  0  0  0  0  0  0  0  0  0
    0.9294    3.2328   -0.2881 C   0  0  0  0  0  0  0  0  0  0  0  0
   -0.3608    2.8424    0.3828 C   0  0  0  0  0  0  0  0  0  0  0  0
   -0.6540    1.3648    0.2478 C   0  0  0  0  0  0  0  0  0  0  0  0
   -1.8155    1.2317   -0.7312 C   0  0  0  0  0  0  0  0  0  0  0  0
   -2.8978    1.9988   -0.0028 C   0  0  0  0  0  0  0  0  0  0  0  0
   -2.5320    1.9287    1.4915 C   0  0  0  0  0  3  0  0  0  0  0  0
   -1.3819    0.9742    1.5474 C   0  0  0  0  0  0  0  0  0  0  0  0
   -0.2302    1.2737    2.9169 S   0  0  0  0  0  0  0  0  0  0  0  0
    1.1870    0.1622    2.6088 C   0  0  0  0  0  0  0  0  0  0  0  0
    0.9874   -0.8926    1.8304 C   0  0  0  0  0  0  0  0  0  0  0  0
    1.9557   -1.9104    1.4429 C   0  0  0  0  0  3  0  0  0  0  0  0
   -1.7542   -0.4695    1.5779 C   0  0  0  0  0  0  0  0  0  0  0  0
   -2.7388   -0.7561    0.4888 C   0  0  0  0  0  0  0  0  0  0  0  0
   -2.2415   -0.2115   -0.8000 C   0  0  0  0  0  0  0  0  0  0  0  0
   -3.2601   -0.3661   -1.7454 O   0  0  0  0  0  0  0  0  0  0  0  0
   -3.2278   -1.6789   -1.9355 O   0  0  0  0  0  0  0  0  0  0  0  0
   -1.9867   -2.0550   -2.0150 O   0  0  0  0  0  0  0  0  0  0  0  0
   -1.2008   -1.1113   -1.4064 C   0  0  0  0  0  0  0  0  0  0  0  0
   -0.3182   -1.5616   -0.4347 O   0  0  0  0  0  0  0  0  0  0  0  0
    0.9426   -1.9581   -0.7745 C   0  0  0  0  0  0  0  0  0  0  0  0
    1.9844   -2.1334   -0.0211 C   0  0  0  0  0  0  0  0  0  0  0  0
    3.2560   -2.5658   -0.6472 C   0  0  0  0  0  0  0  0  0  0  0  0
    4.1085   -1.3775   -1.0425 C   0  0  0  0  0  0  0  0  0  0  0  0
    3.7176   -0.2240   -0.3580 O   0  0  0  0  0  0  0  0  0  0  0  0
  1  2  1  0
  2  3  1  0
  3  4  1  0
  4  5  1  0
  5  6  1  0
  6  7  1  0
  7  8  1  0
  8  9  1  0
  9 10  1  0
 10 11  1  0
 11 12  1  0
 12 13  2  3
 13 14  1  0
 10 15  1  0
 15 16  1  0
 16 17  1  0
 17 18  1  0
 18 19  1  0
 19 20  1  0
 20 21  1  0
 21 22  1  0
 22 23  1  0
 23 24  2  3
 24 25  1  0
 25 26  1  0
 26 27  1  0
 27  1  1  0
 10  6  1  0
 17  7  1  0
 24 14  1  0
 21 17  1  0
M  RAD  3   2   2   9   2  14   2
M  END
$$$$
