
     RDKit          3D

 32 32  0  0  0  0  0  0  0  0999 V2000
   -6.3778    3.1374    0.5755 C   0  0  0  0  0  0  0  0  0  0  0  0
   -6.4389    2.2298   -0.4409 O   0  0  0  0  0  0  0  0  0  0  0  0
   -6.7614    0.9158    0.0704 C   0  0  0  0  0  3  0  0  0  0  0  0
   -5.5827    0.2130   -0.2695 O   0  0  0  0  0  0  0  0  0  0  0  0
   -4.6067    0.4289    0.7376 C   0  0  2  0  0  0  0  0  0  0  0  0
   -3.8201    1.6886    0.3187 C   0  0  0  0  0  0  0  0  0  0  0  0
   -3.2403    1.5225   -1.0175 C   0  0  0  0  0  2  0  0  0  0  0  0
   -3.6467   -0.7453    0.5438 C   0  0  1  0  0  0  0  0  0  0  0  0
   -3.2977   -1.2021   -0.7171 N   0  0  0  0  0  0  0  0  0  0  0  0
   -3.0326   -2.6733   -0.5746 C   0  0  0  0  0  3  0  0  0  0  0  0
   -3.5448   -3.1567    0.7364 C   0  0  0  0  0  0  0  0  0  0  0  0
   -3.6948   -4.6819    0.7614 C   0  0  0  0  0  0  0  0  0  0  0  0
   -2.4598   -0.5012    1.4104 C   0  0  0  0  0  0  0  0  0  0  0  0
   -1.2146   -1.2068    0.9674 C   0  0  0  0  0  0  0  0  0  0  0  0
   -0.9214   -0.4745   -0.2921 O   0  0  0  0  0  0  0  0  0  0  0  0
    0.3891   -0.1570   -0.1130 N   0  0  0  0  0  0  0  0  0  0  0  0
    0.9509   -0.9312    0.9398 C   0  0  0  0  0  0  0  0  0  0  0  0
    2.2205   -0.3496    1.3689 C   0  0  2  0  0  0  0  0  0  0  0  0
    2.0400    0.9474    1.8441 O   0  0  0  0  0  0  0  0  0  0  0  0
    1.9894    1.8234    0.7546 C   0  0  0  0  0  3  0  0  0  0  0  0
    3.2989    2.0726    0.2235 O   0  0  0  0  0  0  0  0  0  0  0  0
    4.2292    1.6043    1.0182 C   0  0  2  0  0  0  0  0  0  0  0  0
    5.6768    1.8723    0.8736 C   0  0  0  0  0  0  0  0  0  0  0  0
    6.0608    1.2516   -0.3753 O   0  0  0  0  0  0  0  0  0  0  0  0
    7.3419    0.8106   -0.0847 O   0  0  0  0  0  0  0  0  0  0  0  0
    7.0192   -0.6354    0.0784 C   0  0  0  0  0  2  0  0  0  0  0  0
    4.3188    0.1186    0.7305 O   0  0  0  0  0  0  0  0  0  0  0  0
    3.1149   -0.1233    0.0462 C   0  0  1  0  0  0  0  0  0  0  0  0
    3.0728   -1.4626   -0.6346 C   0  0  0  0  0  0  0  0  0  0  0  0
    2.0752   -1.6203   -1.5329 O   0  0  0  0  0  0  0  0  0  0  0  0
    2.1525   -1.0321   -2.7441 C   0  0  0  0  0  3  0  0  0  0  0  0
    2.6894    0.3168   -2.9149 C   0  0  0  0  0  0  0  0  0  0  0  0
  1  2  1  0
  2  3  1  0
  3  4  1  0
  4  5  1  0
  5  6  1  6
  6  7  1  0
  5  8  1  0
  8  9  1  0
  9 10  1  0
 10 11  1  0
 11 12  1  0
  8 13  1  6
 13 14  1  0
 14 15  1  0
 15 16  1  0
 16 17  1  0
 18 17  1  6
 18 19  1  0
 19 20  1  0
 20 21  1  0
 21 22  1  0
 22 23  1  6
 23 24  1  0
 24 25  1  0
 25 26  1  0
 22 27  1  0
 27 28  1  0
 28 29  1  6
 29 30  1  0
 30 31  1  0
 31 32  1  0
 28 18  1  0
M  RAD  6   3   2   7   3  10   2  20   2  26   3  31   2
M  END
$$$$
