
     RDKit          3D

  9  9  0  0  0  0  0  0  0  0999 V2000
    1.7626    0.4681    0.2119 O   0  0  0  0  0  0  0  0  0  0  0  0
    0.7178    1.1478    0.6564 O   0  0  0  0  0  0  0  0  0  0  0  0
   -0.1123    1.5555   -0.3650 C   0  0  0  0  0  3  0  0  0  0  0  0
   -0.3973    0.5826   -1.2934 O   0  0  0  0  0  0  0  0  0  0  0  0
   -1.2661   -0.3849   -0.8633 C   0  0  2  0  0  0  0  0  0  0  0  0
   -2.5408    0.1432   -0.2801 C   0  0  0  0  0  0  0  0  0  0  0  0
   -0.6242   -1.2941    0.1501 C   0  0  0  0  0  3  0  0  0  0  0  0
    0.8328   -1.4610   -0.1872 C   0  0  0  0  0  3  0  0  0  0  0  0
    1.6275   -0.7573    0.6992 O   0  0  0  0  0  0  0  0  0  0  0  0
  1  2  1  0
  2  3  1  0
  3  4  1  0
  4  5  1  0
  5  6  1  1
  5  7  1  0
  7  8  1  0
  8  9  1  0
  9  1  1  0
M  RAD  3   3   2   7   2   8   2
M  END
$$$$
