
     RDKit          3D

 34 33  0  0  0  0  0  0  0  0999 V2000
   -2.0005   -5.9312    0.5358 C   0  0  0  0  0  0  0  0  0  0  0  0
   -2.3498   -4.5218    0.9564 C   0  0  1  0  0  0  0  0  0  0  0  0
   -3.7481   -4.5092    1.3373 N   0  0  0  0  0  0  0  0  0  0  0  0
   -1.4556   -4.1316    2.1021 C   0  0  0  0  0  0  0  0  0  0  0  0
   -1.7154   -2.7412    2.6054 C   0  0  0  0  0  0  0  0  0  0  0  0
   -1.4806   -1.7508    1.4664 C   0  0  0  0  0  0  0  0  0  0  0  0
   -0.1325   -1.6998    0.8598 C   0  0  1  0  0  0  0  0  0  0  0  0
    0.2809   -3.0642    0.3476 C   0  0  0  0  0  0  0  0  0  0  0  0
   -0.0653   -0.6926   -0.2255 C   0  0  0  0  0  0  0  0  0  0  0  0
    1.2691   -0.5813   -0.8881 C   0  0  0  0  0  0  0  0  0  0  0  0
    2.3215   -0.2109    0.0299 N   0  0  0  0  0  0  0  0  0  0  0  0
    3.5117   -0.1240   -0.6616 N   0  0  0  0  0  0  0  0  0  0  0  0
    4.3795   -1.2877   -0.4683 C   0  0  0  0  0  0  0  0  0  0  0  0
    5.6238   -0.9807   -1.3062 C   0  0  0  0  0  0  0  0  0  0  0  0
    5.2849   -0.8190   -2.6365 F   0  0  0  0  0  0  0  0  0  0  0  0
    6.3125    0.2559   -0.7588 C   0  0  0  0  0  0  0  0  0  0  0  0
    5.2818    1.3750   -0.8596 C   0  0  0  0  0  0  0  0  0  0  0  0
    5.7934    2.6861   -0.3607 C   0  0  0  0  0  0  0  0  0  0  0  0
    7.0047    3.0605   -1.2115 C   0  0  0  0  0  0  0  0  0  0  0  0
    8.0272    2.0359   -1.0814 N   0  0  0  0  0  2  0  0  0  0  0  0
    8.5946    2.1708    0.2542 C   0  0  0  0  0  0  0  0  0  0  0  0
   -2.5266   -1.0288    1.1380 C   0  0  0  0  0  0  0  0  0  0  0  0
   -2.5886   -0.0705    0.1541 N   0  0  0  0  0  3  0  0  0  0  0  0
   -2.7407   -0.4690   -1.1931 C   0  0  0  0  0  0  0  0  0  0  0  0
   -4.0419   -1.0920   -1.5580 C   0  0  0  0  0  0  0  0  0  0  0  0
   -5.2346   -0.2670   -1.3519 C   0  0  0  0  0  0  0  0  0  0  0  0
   -6.0931    0.1099   -2.2632 C   0  0  0  0  0  0  0  0  0  0  0  0
   -2.1009    1.2010    0.4151 C   0  0  0  0  0  0  0  0  0  0  0  0
   -2.7082    2.3442    0.4293 C   0  0  0  0  0  0  0  0  0  0  0  0
   -4.1036    2.5489    0.1612 C   0  0  0  0  0  0  0  0  0  0  0  0
   -4.6293    3.7523    0.1999 C   0  0  0  0  0  0  0  0  0  0  0  0
   -3.7816    4.9189    0.5232 C   0  0  0  0  0  0  0  0  0  0  0  0
   -4.2192    5.5699    1.6433 F   0  0  0  0  0  0  0  0  0  0  0  0
   -5.9696    3.9442   -0.0583 O   0  0  0  0  0  1  0  0  0  0  0  0
  2  1  1  1
  2  3  1  0
  2  4  1  0
  4  5  1  0
  5  6  1  0
  6  7  1  0
  7  8  1  6
  7  9  1  0
  9 10  1  0
 10 11  1  0
 11 12  1  0
 12 13  1  0
 13 14  1  0
 14 15  1  0
 14 16  1  0
 16 17  1  0
 17 18  1  0
 18 19  1  0
 19 20  1  0
 20 21  1  0
  6 22  2  3
 22 23  1  0
 23 24  1  0
 24 25  1  0
 25 26  1  0
 26 27  2  0
 23 28  1  0
 28 29  2  3
 29 30  1  0
 30 31  2  3
 31 32  1  0
 32 33  1  0
 31 34  1  0
M  CHG  3  20   1  23   1  34  -1
M  RAD  2  20   3  23   2
M  END
$$$$
