
     RDKit          3D

 43 43  0  0  0  0  0  0  0  0999 V2000
    6.5402   -1.9003   -0.2383 C   0  0  0  0  0  0  0  0  0  0  0  0
    6.4055   -3.3241    0.2570 C   0  0  0  0  0  0  0  0  0  0  0  0
    7.0125   -4.2289   -0.7741 C   0  0  0  0  0  0  0  0  0  0  0  0
    7.0920   -3.3946    1.4777 O   0  0  0  0  0  0  0  0  0  0  0  0
    4.9574   -3.6761    0.4949 C   0  0  0  0  0  3  0  0  0  0  0  0
    4.0139   -2.6976   -0.9418 C   0  0  0  0  0  0  0  0  0  0  0  0
    3.0784   -2.4604   -0.0634 C   0  0  0  0  0  0  0  0  0  0  0  0
    2.2409   -2.2322    0.7452 C   0  0  0  0  0  0  0  0  0  0  0  0
    1.7368   -2.1001    1.2323 C   0  0  0  0  0  0  0  0  0  0  0  0
    2.3519    0.0317    1.4984 C   0  0  0  0  0  0  0  0  0  0  0  0
    2.0647    0.5076    0.1102 C   0  0  0  0  0  0  0  0  0  0  0  0
    0.7264    0.0578   -0.4243 C   0  0  0  0  0  3  0  0  0  0  0  0
   -0.4168    0.9260    0.0294 C   0  0  2  0  0  0  0  0  0  0  0  0
   -0.8520    0.4782    1.2755 O   0  0  0  0  0  0  0  0  0  0  0  0
   -1.5312    0.7005   -0.9741 C   0  0  0  0  0  0  0  0  0  0  0  0
   -2.0500   -0.7234   -0.8630 C   0  0  0  0  0  3  0  0  0  0  0  0
   -0.9967   -1.5876   -0.1846 C   0  0  0  0  0  0  0  0  0  0  0  0
   -3.3085   -0.7321   -0.0755 C   0  0  0  0  0  3  0  0  0  0  0  0
   -3.6727    0.4987    0.6096 C   0  0  0  0  0  0  0  0  0  0  0  0
   -4.4524    1.4646   -0.1610 C   0  0  2  0  0  0  0  0  0  0  0  0
   -3.8506    2.3655   -1.1229 C   0  0  0  0  0  2  0  0  0  0  0  0
   -5.8363    2.1699    0.7219 S   0  0  0  0  0  0  0  0  0  0  0  0
   -7.3114    2.1495   -0.2019 C   0  0  0  0  0  0  0  0  0  0  0  0
   -7.7697    0.7633   -0.5879 C   0  0  1  0  0  0  0  0  0  0  0  0
   -7.3328   -0.0457    0.7309 C   0  0  0  0  0  0  0  0  0  0  0  0
   -7.4837   -1.7916    0.4659 S   0  0  0  0  0  0  0  0  0  0  0  0
   -9.0361   -2.1850   -0.1618 O   0  0  0  0  0  0  0  0  0  0  0  0
   -8.9118   -3.2390   -1.0634 C   0  0  0  0  0  0  0  0  0  0  0  0
   -7.7088   -3.8804   -0.8846 F   0  0  0  0  0  0  0  0  0  0  0  0
   -9.2869    0.7108   -0.4154 C   0  0  0  0  0  0  0  0  0  0  0  0
  -10.0793    2.3177   -0.7841 P   0  0  0  0  0  0  0  0  0  0  0  0
   -9.0506    3.6422   -0.2453 O   0  0  0  0  0  0  0  0  0  0  0  0
    2.2679    2.0159   -0.0726 C   0  0  0  0  0  0  0  0  0  0  0  0
    3.5287    2.2213   -0.5835 O   0  0  0  0  0  0  0  0  0  0  0  0
    4.1382    0.7910   -1.3020 S   0  0  0  0  0  0  0  0  0  0  0  0
    5.4584    0.0738   -0.3633 C   0  0  1  0  0  0  0  0  0  0  0  0
    5.9075    0.7391    0.8471 C   0  0  0  0  0  0  0  0  0  0  0  0
    6.7210    1.9411    0.5951 C   0  0  0  0  0  0  0  0  0  0  0  0
    5.8869    3.1773    0.5408 C   0  0  0  0  0  0  0  0  0  0  0  0
    6.7330    4.3500    0.1057 C   0  0  0  0  0  0  0  0  0  0  0  0
    8.0769    4.2189    0.7086 C   0  0  0  0  0  0  0  0  0  0  0  0
    8.6991    3.1612    0.6921 O   0  0  0  0  0  0  0  0  0  0  0  0
    5.2999   -1.2744   -0.1373 O   0  0  0  0  0  0  0  0  0  0  0  0
  1  2  1  0
  2  3  1  0
  2  4  1  0
  2  5  1  0
  5  6  1  0
  6  7  1  0
  7  8  3  0
  8  9  1  0
  9 10  1  0
 10 11  1  0
 11 12  1  0
 12 13  1  0
 13 14  1  1
 13 15  1  0
 15 16  1  0
 16 17  1  0
 16 18  1  0
 18 19  1  0
 19 20  1  0
 20 21  1  1
 20 22  1  0
 22 23  1  0
 24 23  1  1
 24 25  1  0
 25 26  1  0
 26 27  1  0
 27 28  1  0
 28 29  1  0
 24 30  1  0
 30 31  1  0
 31 32  1  0
 11 33  1  0
 33 34  1  0
 34 35  1  0
 35 36  1  0
 36 37  1  1
 37 38  1  0
 38 39  1  0
 39 40  1  0
 40 41  1  0
 41 42  2  0
 36 43  1  0
 43  1  1  0
M  RAD  5   5   2  12   2  16   2  18   2  21   3
M  END
$$$$
