
     RDKit          3D

 26 28  0  0  0  0  0  0  0  0999 V2000
    4.6251    1.4777    1.0058 O   0  0  0  0  0  0  0  0  0  0  0  0
    4.9602    2.6170    0.2465 C   0  0  0  0  0  3  0  0  0  0  0  0
    6.0245    2.2757   -0.7946 C   0  0  0  0  0  0  0  0  0  0  0  0
    5.9265    0.8391   -1.0309 N   0  0  0  0  0  0  0  0  0  0  0  0
    4.7470    0.5587   -1.6331 O   0  0  0  0  0  0  0  0  0  0  0  0
    3.7402    1.1160   -0.9632 O   0  0  0  0  0  0  0  0  0  0  0  0
    3.7644    0.6898    0.3232 N   0  0  0  0  0  0  0  0  0  0  0  0
    2.5500    0.6607    0.8917 O   0  0  0  0  0  0  0  0  0  0  0  0
    1.8180   -0.8705    0.8779 S   0  0  0  0  0  0  0  0  0  0  0  0
    0.1588   -0.8819    0.2164 C   0  0  0  0  0  0  0  0  0  0  0  0
   -0.1573    0.3781   -0.2039 C   0  0  0  0  0  0  0  0  0  0  0  0
    0.3783    1.3977    0.5317 F   0  0  0  0  0  0  0  0  0  0  0  0
   -0.9912    0.8401   -1.3358 C   0  0  0  0  0  0  0  0  0  0  0  0
   -2.0253    1.7917   -1.0800 C   0  0  0  0  0  0  0  0  0  0  0  0
   -3.2039    1.6802   -0.5543 C   0  0  0  0  0  0  0  0  0  0  0  0
   -3.8233    0.4697   -0.0522 C   0  0  0  0  0  0  0  0  0  0  0  0
   -5.1672    0.4035   -0.0066 C   0  0  0  0  0  0  0  0  0  0  0  0
   -5.7793   -0.8085    0.4963 N   0  0  0  0  0  0  0  0  0  0  0  0
   -4.9251   -1.8923    0.9337 C   0  0  0  0  0  0  0  0  0  0  0  0
   -3.6499   -1.5576    1.1821 C   0  0  0  0  0  0  0  0  0  0  0  0
   -2.3367   -2.6426    1.7336 S   0  0  0  0  0  0  0  0  0  0  0  0
   -1.0082   -2.9371    0.8692 C   0  0  0  0  0  0  0  0  0  0  0  0
   -0.6912   -1.9655    0.1126 N   0  0  0  0  0  4  0  0  0  0  0  0
   -1.4915   -2.2130   -1.0384 O   0  0  0  0  0  0  0  0  0  0  0  0
   -2.1522   -1.2609   -1.8640 C   0  0  0  0  0  0  0  0  0  0  0  0
   -1.2907   -0.1658   -2.3524 C   0  0  0  0  0  0  0  0  0  0  0  0
  1  2  1  0
  2  3  1  0
  3  4  1  0
  4  5  1  0
  5  6  1  0
  6  7  1  0
  7  8  1  0
  8  9  1  0
  9 10  1  0
 10 11  2  0
 11 12  1  0
 11 13  1  0
 13 14  1  0
 14 15  2  3
 15 16  1  0
 16 17  2  3
 17 18  1  0
 18 19  1  0
 19 20  2  3
 20 21  1  0
 21 22  2  0
 22 23  2  0
 23 24  1  0
 24 25  1  0
 25 26  1  0
  7  1  1  0
 23 10  1  0
 26 13  1  0
M  CHG  1  23   1
M  RAD  1   2   2
M  END
$$$$
