
     RDKit          3D

 45 46  0  0  0  0  0  0  0  0999 V2000
   -7.4090   -0.9934    0.1011 O   0  0  0  0  0  0  0  0  0  0  0  0
   -6.7526   -1.7360   -0.6563 C   0  0  0  0  0  0  0  0  0  0  0  0
   -7.4221   -2.1980   -1.8075 O   0  0  0  0  0  0  0  0  0  0  0  0
   -5.3788   -2.1748   -0.4819 C   0  0  0  0  0  0  0  0  0  0  0  0
   -4.6389   -1.6623    0.6768 C   0  0  0  0  0  0  0  0  0  0  0  0
   -4.4100   -0.2154    0.7979 C   0  0  0  0  0  0  0  0  0  0  0  0
   -5.5373    0.6426    0.8694 N   0  0  0  0  0  0  0  0  0  0  0  0
   -5.5400    1.8616    0.0897 C   0  0  0  0  0  0  0  0  0  0  0  0
   -4.3822    2.1450   -0.5957 C   0  0  0  0  0  0  0  0  0  0  0  0
   -3.2954    1.2958   -0.5258 C   0  0  0  0  0  0  0  0  0  0  0  0
   -2.4866    0.5351   -1.1003 C   0  0  0  0  0  0  0  0  0  0  0  0
   -1.1952   -0.2856   -0.0577 S   0  0  0  0  0  0  0  0  0  0  0  0
   -1.0673   -2.0864   -0.7384 C   0  0  0  0  0  0  0  0  0  0  0  0
    0.2329   -2.0719   -1.5108 C   0  0  0  0  0  0  0  0  0  0  0  0
   -4.4266    3.4116   -1.3705 C   0  0  0  0  0  0  0  0  0  0  0  0
   -5.7229    4.1466   -1.2633 C   0  0  0  0  0  0  0  0  0  0  0  0
   -7.0984    3.1852   -1.8491 Cl  0  0  0  0  0  0  0  0  0  0  0  0
   -3.3590    0.0654    1.6711 O   0  0  0  0  0  0  0  0  0  0  0  0
   -2.0867   -0.3960    1.5158 C   0  0  0  0  0  0  0  0  0  0  0  0
   -1.3731   -0.9658    2.4855 C   0  0  0  0  0  0  0  0  0  0  0  0
   -0.0011   -1.4721    2.3537 C   0  0  0  0  0  0  0  0  0  0  0  0
    0.1640   -2.8456    3.0179 C   0  0  0  0  0  0  0  0  0  0  0  0
    1.0987   -3.6370    2.1722 C   0  0  0  0  0  0  0  0  0  0  0  0
    0.7415   -4.2054    1.0750 N   0  0  0  0  0  0  0  0  0  0  0  0
    2.5285   -3.8067    2.5762 C   0  0  0  0  0  0  0  0  0  0  0  0
    3.3145   -2.5881    2.2593 C   0  0  0  0  0  0  0  0  0  0  0  0
    3.0998   -1.5001    2.8321 O   0  0  0  0  0  0  0  0  0  0  0  0
    4.3530   -2.6684    1.2621 C   0  0  0  0  0  0  0  0  0  0  0  0
    4.6555   -3.7315    0.6707 N   0  0  0  0  0  4  0  0  0  0  0  0
    4.3532   -3.8043   -0.5383 C   0  0  0  0  0  0  0  0  0  0  0  0
    5.1896   -3.0957   -1.5239 C   0  0  0  0  0  0  0  0  0  0  0  0
    6.0589   -2.0663   -0.8245 C   0  0  0  0  0  0  0  0  0  0  0  0
    6.1906   -0.5744   -1.8306 S   0  0  0  0  0  0  0  0  0  0  0  0
    4.7615    0.4980   -1.5833 C   0  0  0  0  0  0  0  0  0  0  0  0
    4.3871    1.3311   -2.5477 C   0  0  0  0  0  0  0  0  0  0  0  0
    3.2218    2.2100   -2.3544 C   0  0  0  0  0  0  0  0  0  0  0  0
    3.5626    3.3648   -1.5103 C   0  0  0  0  0  0  0  0  0  0  0  0
    4.7207    3.5992   -0.9579 C   0  0  0  0  0  0  0  0  0  0  0  0
    4.8494    4.8156   -0.1494 C   0  0  0  0  0  0  0  0  0  0  0  0
    5.9963    5.1122    0.4382 C   0  0  0  0  0  0  0  0  0  0  0  0
    6.0369    6.3789    1.2474 C   0  0  0  0  0  0  0  0  0  0  0  0
    2.0770    1.4027   -1.7333 C   0  0  0  0  0  0  0  0  0  0  0  0
    1.3206    2.3395   -0.8811 C   0  0  0  0  0  0  0  0  0  0  0  0
    0.4681    1.9187    0.0224 C   0  0  0  0  0  0  0  0  0  0  0  0
    0.2003    0.5214    0.2574 C   0  0  0  0  0  0  0  0  0  0  0  0
  1  2  2  0
  2  3  1  0
  2  4  1  0
  4  5  1  0
  5  6  1  0
  6  7  1  0
  7  8  1  0
  8  9  2  3
  9 10  1  0
 10 11  2  3
 11 12  1  0
 12 13  1  0
 13 14  1  0
  9 15  1  0
 15 16  1  0
 16 17  1  0
  6 18  1  0
 18 19  1  0
 19 20  2  3
 20 21  1  0
 21 22  1  0
 22 23  1  0
 23 24  2  0
 23 25  1  0
 25 26  1  0
 26 27  2  0
 26 28  1  0
 28 29  2  0
 29 30  2  0
 30 31  1  0
 31 32  1  0
 32 33  1  0
 33 34  1  0
 34 35  2  3
 35 36  1  0
 36 37  1  0
 37 38  2  3
 38 39  1  0
 39 40  2  3
 40 41  1  0
 36 42  1  0
 42 43  1  0
 43 44  2  3
 44 45  1  0
 19 12  1  0
 12 45  2  0
M  CHG  1  29   1
M  END
$$$$
