
     RDKit          2D

 87 87  0  0  0  0  0  0  0  0999 V2000
   62.3444  -33.7750    0.0000 C   0  0  0  0  0  0  0  0  0  0  0  0
   61.5944  -32.4760    0.0000 C   0  0  0  0  0  0  0  0  0  0  0  0
   60.0944  -32.4760    0.0000 N   0  0  0  0  0  0  0  0  0  0  0  0
   59.3444  -31.1769    0.0000 C   0  0  0  0  0  0  0  0  0  0  0  0
   60.0944  -29.8779    0.0000 O   0  0  0  0  0  0  0  0  0  0  0  0
   57.8444  -31.1769    0.0000 C   0  0  0  0  0  0  0  0  0  0  0  0
   57.0944  -29.8779    0.0000 O   0  0  0  0  0  0  0  0  0  0  0  0
   55.5944  -29.8779    0.0000 C   0  0  0  0  0  0  0  0  0  0  0  0
   54.8444  -28.5788    0.0000 C   0  0  0  0  0  3  0  0  0  0  0  0
   53.3444  -28.5788    0.0000 C   0  0  0  0  0  0  0  0  0  0  0  0
   52.5944  -27.2798    0.0000 C   0  0  0  0  0  0  0  0  0  0  0  0
   53.3444  -25.9808    0.0000 C   0  0  0  0  0  0  0  0  0  0  0  0
   51.0944  -27.2798    0.0000 C   0  0  0  0  0  0  0  0  0  0  0  0
   50.3444  -25.9808    0.0000 O   0  0  0  0  0  0  0  0  0  0  0  0
   48.8444  -25.9808    0.0000 C   0  0  0  0  0  0  0  0  0  0  0  0
   48.0944  -27.2798    0.0000 O   0  0  0  0  0  0  0  0  0  0  0  0
   48.8444  -28.5788    0.0000 C   0  0  0  0  0  0  0  0  0  0  0  0
   48.0944  -29.8779    0.0000 C   0  0  0  0  0  0  0  0  0  0  0  0
   48.8444  -31.1769    0.0000 O   0  0  0  0  0  0  0  0  0  0  0  0
   48.0944  -32.4760    0.0000 C   0  0  0  0  0  0  0  0  0  0  0  0
   48.8444  -33.7750    0.0000 C   0  0  0  0  0  0  0  0  0  0  0  0
   48.0944  -35.0740    0.0000 N   0  0  0  0  0  0  0  0  0  0  0  0
   48.8444  -36.3731    0.0000 S   0  0  0  0  0  0  0  0  0  0  0  0
   48.0944  -24.6817    0.0000 C   0  0  0  0  0  0  0  0  0  0  0  0
   46.5944  -24.6817    0.0000 C   0  0  0  0  0  0  0  0  0  0  0  0
   45.8444  -23.3827    0.0000 S   0  0  0  0  0  0  0  0  0  0  0  0
   44.3444  -23.3827    0.0000 C   0  0  0  0  0  0  0  0  0  0  0  0
   43.5944  -22.0836    0.0000 C   0  0  0  0  0  0  0  0  0  0  0  0
   42.0944  -22.0836    0.0000 C   0  0  0  0  0  0  0  0  0  0  0  0
   41.3444  -20.7846    0.0000 C   0  0  0  0  0  0  0  0  0  0  0  0
   39.8444  -20.7846    0.0000 O   0  0  0  0  0  0  0  0  0  0  0  0
   39.0944  -19.4856    0.0000 C   0  0  0  0  0  0  0  0  0  0  0  0
   37.5944  -19.4856    0.0000 C   0  0  0  0  0  0  0  0  0  0  0  0
   36.8444  -18.1865    0.0000 C   0  0  0  0  0  0  0  0  0  0  0  0
   35.3444  -18.1865    0.0000 O   0  0  0  0  0  0  0  0  0  0  0  0
   34.5944  -16.8875    0.0000 S   0  0  0  0  0  0  0  0  0  0  0  0
   33.0944  -16.8875    0.0000 O   0  0  0  0  0  0  0  0  0  0  0  0
   32.3444  -15.5885    0.0000 C   0  0  0  0  0  0  0  0  0  0  0  0
   30.8444  -15.5885    0.0000 O   0  0  0  0  0  0  0  0  0  0  0  0
   30.0944  -14.2894    0.0000 C   0  0  0  0  0  0  0  0  0  0  0  0
   28.5944  -14.2894    0.0000 O   0  0  0  0  0  0  0  0  0  0  0  0
   27.8444  -12.9904    0.0000 C   0  0  0  0  0  0  0  0  0  0  0  0
   26.3444  -12.9904    0.0000 C   0  0  0  0  0  0  0  0  0  0  0  0
   25.5944  -11.6913    0.0000 O   0  0  0  0  0  0  0  0  0  0  0  0
   24.0944  -11.6913    0.0000 C   0  0  0  0  0  0  0  0  0  0  0  0
   23.3444  -10.3923    0.0000 S   0  0  0  0  0  0  0  0  0  0  0  0
   21.8444  -10.3923    0.0000 C   0  0  0  0  0  0  0  0  0  0  0  0
   21.0944   -9.0933    0.0000 C   0  0  0  0  0  0  0  0  0  0  0  0
   19.5944   -9.0933    0.0000 O   0  0  0  0  0  0  0  0  0  0  0  0
   18.8444   -7.7942    0.0000 C   0  0  0  0  0  0  0  0  0  0  0  0
   17.3444   -7.7942    0.0000 O   0  0  0  0  0  0  0  0  0  0  0  0
   16.5944   -6.4952    0.0000 C   0  0  0  0  0  0  0  0  0  0  0  0
   15.0944   -6.4952    0.0000 C   0  0  0  0  0  0  0  0  0  0  0  0
   14.3444   -5.1962    0.0000 O   0  0  0  0  0  0  0  0  0  0  0  0
   12.8444   -5.1962    0.0000 C   0  0  0  0  0  0  0  0  0  0  0  0
   12.0944   -3.8971    0.0000 C   0  0  0  0  0  0  0  0  0  0  0  0
   10.5944   -3.8971    0.0000 S   0  0  0  0  0  0  0  0  0  0  0  0
    9.8444   -2.5981    0.0000 N   0  0  0  0  0  0  0  0  0  0  0  0
    8.3444   -2.5981    0.0000 C   0  0  0  0  0  0  0  0  0  0  0  0
    7.5944   -1.2990    0.0000 O   0  0  0  0  0  0  0  0  0  0  0  0
    6.0944   -1.2990    0.0000 C   0  0  0  0  0  0  0  0  0  0  0  0
    5.3444    0.0000    0.0000 S   0  0  0  0  0  0  0  0  0  0  0  0
    3.8444    0.0000    0.0000 S   0  0  0  0  0  0  0  0  0  0  0  0
    3.5517   -1.4712    0.0000 C   0  0  0  0  0  0  0  0  0  0  0  0
    2.7184   -2.7184    0.0000 C   0  0  0  0  0  0  0  0  0  0  0  0
    1.4712   -3.5517    0.0000 N   0  0  0  0  0  0  0  0  0  0  0  0
   -0.0000   -3.8444    0.0000 C   0  0  0  0  0  0  0  0  0  0  0  0
   -1.4712   -3.5517    0.0000 C   0  0  0  0  0  0  0  0  0  0  0  0
   -2.7184   -2.7184    0.0000 C   0  0  0  0  0  0  0  0  0  0  0  0
   -3.5517   -1.4712    0.0000 O   0  0  0  0  0  0  0  0  0  0  0  0
   -3.8444    0.0000    0.0000 N   0  0  0  0  0  0  0  0  0  0  0  0
   -3.5517    1.4712    0.0000 C   0  0  0  0  0  0  0  0  0  0  0  0
   -2.7184    2.7184    0.0000 N   0  0  0  0  0  0  0  0  0  0  0  0
   -1.4712    3.5517    0.0000 C   0  0  0  0  0  0  0  0  0  0  0  0
    0.0000    3.8444    0.0000 O   0  0  0  0  0  0  0  0  0  0  0  0
    1.4712    3.5517    0.0000 C   0  0  0  0  0  0  0  0  0  0  0  0
    2.7184    2.7184    0.0000 O   0  0  0  0  0  0  0  0  0  0  0  0
    3.5517    1.4712    0.0000 C   0  0  0  0  0  0  0  0  0  0  0  0
    4.9376    2.0452    0.0000 C   0  0  0  0  0  0  0  0  0  0  0  0
    6.1276    1.1321    0.0000 O   0  0  0  0  0  0  0  0  0  0  0  0
    7.5134    1.7061    0.0000 S   0  0  0  0  0  0  0  0  0  0  0  0
    8.7034    0.7929    0.0000 C   0  0  0  0  0  0  0  0  0  0  0  0
   10.0893    1.3670    0.0000 C   0  0  0  0  0  0  0  0  0  0  0  0
   11.2793    0.4538    0.0000 O   0  0  0  0  0  0  0  0  0  0  0  0
   12.6651    1.0279    0.0000 C   0  0  0  0  0  0  0  0  0  0  0  0
   13.8551    0.1147    0.0000 O   0  0  0  0  0  0  0  0  0  0  0  0
   15.2410    0.6887    0.0000 S   0  0  0  0  0  0  0  0  0  0  0  0
  1  2  1  0
  2  3  1  0
  3  4  1  0
  4  5  2  0
  4  6  1  0
  6  7  1  0
  7  8  1  0
  8  9  1  0
  9 10  1  0
 10 11  1  0
 11 12  2  0
 11 13  1  0
 13 14  1  0
 14 15  1  0
 15 16  1  0
 16 17  1  0
 17 18  2  3
 18 19  1  0
 19 20  1  0
 20 21  1  0
 21 22  1  0
 22 23  1  0
 15 24  2  3
 24 25  1  0
 25 26  1  0
 26 27  2  3
 27 28  1  0
 28 29  2  3
 29 30  1  0
 30 31  1  0
 31 32  1  0
 32 33  1  0
 33 34  2  3
 34 35  1  0
 35 36  1  0
 36 37  1  0
 37 38  1  0
 38 39  1  0
 39 40  1  0
 40 41  1  0
 41 42  1  0
 42 43  2  3
 43 44  1  0
 44 45  1  0
 45 46  1  0
 46 47  2  3
 47 48  1  0
 48 49  1  0
 49 50  1  0
 50 51  1  0
 51 52  1  0
 52 53  2  3
 53 54  1  0
 54 55  1  0
 55 56  1  0
 56 57  1  0
 57 58  1  0
 58 59  2  3
 59 60  1  0
 60 61  1  0
 61 62  1  0
 62 63  1  0
 63 64  1  0
 64 65  1  0
 65 66  1  0
 66 67  2  3
 67 68  1  0
 68 69  1  0
 69 70  1  0
 70 71  1  0
 71 72  2  3
 72 73  1  0
 73 74  2  3
 74 75  1  0
 75 76  1  0
 76 77  1  0
 77 78  1  0
 78 79  2  3
 79 80  1  0
 80 81  1  0
 81 82  2  3
 82 83  1  0
 83 84  1  0
 84 85  1  0
 85 86  1  0
 86 87  1  0
 78 63  1  0
M  RAD  1   9   2
M  END
$$$$
