
     RDKit          3D

 17 19  0  0  0  0  0  0  0  0999 V2000
    0.2415   -2.4830    0.0101 C   0  0  0  0  0  0  0  0  0  0  0  0
    0.8940   -1.1826    0.2765 C   0  0  1  0  0  0  0  0  0  0  0  0
    2.3855   -1.1587    0.2405 C   0  0  0  0  0  0  0  0  0  0  0  0
    2.7931    0.2274   -0.2766 C   0  0  2  0  0  0  0  0  0  0  0  0
    4.2700    0.4434   -0.2017 C   0  0  0  0  0  0  0  0  0  0  0  0
    2.1256    1.2483    0.3969 O   0  0  0  0  0  0  0  0  0  0  0  0
    0.7655    1.2001    0.2948 C   0  0  2  0  0  0  0  0  0  0  0  0
    0.4034   -0.0209   -0.5207 C   0  0  2  0  0  0  0  0  0  0  0  0
   -0.9901   -0.0572   -0.9926 C   0  0  0  0  0  0  0  0  0  0  0  0
   -1.5657   -1.4152   -1.1919 C   0  0  0  0  0  0  0  0  0  0  0  0
   -1.2736   -2.2190    0.0836 C   0  0  2  0  0  0  0  0  0  0  0  0
   -1.4455   -1.2023    1.2240 C   0  0  0  0  0  0  0  0  0  0  0  0
   -2.7328   -0.5051    1.1096 C   0  0  0  0  0  0  0  0  0  0  0  0
   -2.8745    0.8069    1.0114 C   0  0  0  0  0  3  0  0  0  0  0  0
   -1.7683    1.6784    1.0077 O   0  0  0  0  0  0  0  0  0  0  0  0
   -1.3004    2.1982   -0.1318 O   0  0  0  0  0  0  0  0  0  0  0  0
    0.0723    2.4411   -0.0955 C   0  0  0  0  0  3  0  0  0  0  0  0
  1  2  1  0
  2  3  1  6
  3  4  1  0
  4  5  1  1
  4  6  1  0
  7  6  1  6
  7  8  1  0
  8  9  1  1
  9 10  1  0
 11 10  1  6
 11 12  1  0
 12 13  1  0
 13 14  2  3
 14 15  1  0
 15 16  1  0
 16 17  1  0
 11  1  1  0
  8  2  1  0
 17  7  1  0
M  RAD  2  14   2  17   2
M  END
$$$$
