
     RDKit          3D

  7  7  0  0  0  0  0  0  0  0999 V2000
   -1.2857    1.5240    0.4629 O   0  0  0  0  0  0  0  0  0  0  0  0
   -0.3694    0.7040    0.2174 N   0  0  0  0  0  4  0  0  0  0  0  0
    0.9900    1.0433   -0.0276 C   0  0  0  0  0  0  0  0  0  0  0  0
    1.6617   -0.0217   -0.2432 N   0  0  0  0  0  3  0  0  0  0  0  0
    0.8677   -1.1418   -0.1707 O   0  0  0  0  0  0  0  0  0  0  0  0
   -0.4202   -0.7093    0.1193 C   0  0  0  0  0  0  0  0  0  0  0  0
   -1.4442   -1.3986    0.2706 O   0  0  0  0  0  0  0  0  0  0  0  0
  1  2  2  0
  2  3  1  0
  3  4  2  0
  4  5  1  0
  5  6  1  0
  6  7  2  0
  6  2  1  0
M  CHG  2   2   1   4   1
M  RAD  1   4   2
M  END
$$$$
