
     RDKit          3D

 69 73  0  0  0  0  0  0  0  0999 V2000
   -0.9604    3.1339    2.8213 C   0  0  0  0  0  0  0  0  0  0  0  0
   -0.8001    3.0127    1.3338 C   0  0  0  0  0  0  0  0  0  0  0  0
   -1.1013    1.6605    0.9271 C   0  0  0  0  0  0  0  0  0  0  0  0
   -1.0387    1.2430   -0.3208 C   0  0  0  0  0  0  0  0  0  0  0  0
   -0.6259    2.2086   -1.3310 C   0  0  0  0  0  0  0  0  0  0  0  0
   -0.3633    3.4036   -0.9835 C   0  0  0  0  0  0  0  0  0  0  0  0
   -0.4463    3.8576    0.3843 C   0  0  0  0  0  0  0  0  0  0  0  0
   -0.0557    5.2864    0.2428 C   0  0  0  0  0  0  0  0  0  0  0  0
   -1.0288    5.6977   -0.8850 N   0  0  0  0  0  0  0  0  0  0  0  0
   -2.0497    4.6825   -0.9383 C   0  0  0  0  0  0  0  0  0  0  0  0
   -2.7695    4.3894   -2.1697 C   0  0  0  0  0  0  0  0  0  0  0  0
   -2.9584    2.9679   -2.6041 C   0  0  0  0  0  0  0  0  0  0  0  0
   -3.1238    1.8992   -1.6628 C   0  0  0  0  0  0  0  0  0  0  0  0
   -2.6313    0.5382   -1.8342 C   0  0  0  0  0  0  0  0  0  0  0  0
   -1.5095    0.1254   -1.1093 C   0  0  0  0  0  0  0  0  0  0  0  0
   -1.0950   -1.1961   -1.2678 C   0  0  0  0  0  0  0  0  0  0  0  0
   -0.2326   -1.9822   -0.7680 C   0  0  0  0  0  0  0  0  0  0  0  0
   -0.2606   -3.3613   -1.3736 C   0  0  0  0  0  0  0  0  0  0  0  0
    0.0952   -4.5875   -0.5980 C   0  0  0  0  0  0  0  0  0  0  0  0
   -0.3683   -4.4694    0.7662 C   0  0  0  0  0  0  0  0  0  0  0  0
   -1.3885   -5.2039    1.2366 O   0  0  0  0  0  0  0  0  0  0  0  0
   -2.5943   -5.0014    0.5636 C   0  0  0  0  0  0  0  0  0  0  0  0
   -3.6458   -5.8731    1.2165 C   0  0  0  0  0  0  0  0  0  0  0  0
   -0.6132   -3.4814   -2.5833 C   0  0  0  0  0  0  0  0  0  0  0  0
   -0.7553   -4.5731   -3.4686 C   0  0  0  0  0  0  0  0  0  0  0  0
   -0.4937   -5.9170   -2.9973 C   0  0  0  0  0  0  0  0  0  0  0  0
   -1.2688   -6.4250   -1.9844 O   0  0  0  0  0  0  0  0  0  0  0  0
   -0.9203   -7.7155   -1.6667 C   0  0  0  0  0  0  0  0  0  0  0  0
    0.5116   -7.8326   -1.2188 C   0  0  0  0  0  0  0  0  0  0  0  0
   -0.2351    5.8024   -2.0020 N   0  0  0  0  0  0  0  0  0  0  0  0
    1.1602    5.6921   -1.6560 C   0  0  0  0  0  0  0  0  0  0  0  0
    2.0468    5.2170   -2.7603 C   0  0  0  0  0  0  0  0  0  0  0  0
    2.0706    3.8653   -2.9726 O   0  0  0  0  0  0  0  0  0  0  0  0
    3.2846    3.3247   -2.7400 N   0  0  0  0  0  0  0  0  0  0  0  0
    3.2970    2.8143   -1.3868 C   0  0  0  0  0  0  0  0  0  0  0  0
    4.2539    1.6474   -1.2114 C   0  0  0  0  0  0  0  0  0  0  0  0
    3.5846    0.3327   -1.5264 C   0  0  0  0  0  0  0  0  0  0  0  0
    3.2654   -0.5300   -0.3561 C   0  0  0  0  0  0  0  0  0  0  0  0
    2.7514   -1.7349   -0.8486 O   0  0  0  0  0  0  0  0  0  0  0  0
    2.0695   -2.4738    0.1072 C   0  0  0  0  0  0  0  0  0  0  0  0
    0.7277   -1.6887    0.3126 C   0  0  0  0  0  0  0  0  0  0  0  0
    1.1066   -0.3265    0.4135 N   0  0  0  0  0  0  0  0  0  0  0  0
    0.2007   -2.2127    1.6288 C   0  0  0  0  0  0  0  0  0  0  0  0
    0.3724   -3.7000    1.7383 C   0  0  0  0  0  0  0  0  0  0  0  0
   -0.0351   -4.1013    3.1864 C   0  0  0  0  0  0  0  0  0  0  0  0
   -0.2950   -2.8543    4.0117 C   0  0  0  0  0  0  0  0  0  0  0  0
   -1.6483   -2.2630    3.6571 C   0  0  0  0  0  0  0  0  0  0  0  0
   -2.6544   -3.1216    3.4450 C   0  0  0  0  0  0  0  0  0  0  0  0
   -4.0073   -2.6641    3.0949 C   0  0  0  0  0  0  0  0  0  0  0  0
   -4.1479   -2.2065    1.6718 C   0  0  0  0  0  0  0  0  0  0  0  0
   -5.4717   -2.3749    1.2019 O   0  0  0  0  0  0  0  0  0  0  0  0
   -5.5529   -1.6583   -0.0229 C   0  0  0  0  0  0  0  0  0  0  0  0
   -5.3869   -0.1971    0.3295 C   0  0  0  0  0  0  0  0  0  0  0  0
   -4.9731    0.1126    1.5316 C   0  0  0  0  0  0  0  0  0  0  0  0
   -4.7530    1.4745    2.0437 C   0  0  0  0  0  0  0  0  0  0  0  0
   -5.2621    2.5464    1.1066 C   0  0  0  0  0  0  0  0  0  0  0  0
   -4.6055    3.7450    1.3650 O   0  0  0  0  0  0  0  0  0  0  0  0
   -4.5055    3.9397    2.7005 N   0  0  0  0  0  0  0  0  0  0  0  0
   -3.4383    3.1539    3.3188 C   0  0  0  0  0  0  0  0  0  0  0  0
   -2.1414    3.9191    3.2527 C   0  0  0  0  0  0  0  0  0  0  0  0
   -2.2825    5.1885    2.4402 C   0  0  0  0  0  0  0  0  0  0  0  0
    4.9964    1.7001    0.0686 C   0  0  0  0  0  0  0  0  0  0  0  0
    5.8573    0.6153    0.1653 O   0  0  0  0  0  0  0  0  0  0  0  0
    6.8125    0.6144   -0.8659 C   0  0  0  0  0  0  0  0  0  0  0  0
    7.6957   -0.6005   -0.6638 C   0  0  0  0  0  0  0  0  0  0  0  0
    8.7000   -0.5953   -1.7410 N   0  0  0  0  0  0  0  0  0  0  0  0
    9.5633    0.5651   -1.4636 C   0  0  0  0  0  0  0  0  0  0  0  0
   10.6513    0.7143   -2.4839 C   0  0  0  0  0  0  0  0  0  0  0  0
   11.4207    1.8319   -2.1489 O   0  0  0  0  0  0  0  0  0  0  0  0
  1  2  1  0
  2  3  2  0
  3  4  1  0
  4  5  2  0
  5  6  1  0
  6  7  2  0
  7  8  1  0
  8  9  1  0
  9 10  1  0
 10 11  1  0
 11 12  1  0
 12 13  1  0
 13 14  1  0
 14 15  2  3
 15 16  1  0
 16 17  2  3
 17 18  1  0
 18 19  1  0
 19 20  1  0
 20 21  1  0
 21 22  1  0
 22 23  1  0
 18 24  2  3
 24 25  1  0
 25 26  1  0
 26 27  1  0
 27 28  1  0
 28 29  1  0
  9 30  1  0
 30 31  1  0
 31 32  1  0
 32 33  1  0
 33 34  1  0
 34 35  1  0
 35 36  1  0
 36 37  1  0
 37 38  1  0
 38 39  1  0
 39 40  1  0
 40 41  1  0
 41 42  1  0
 41 43  1  0
 43 44  1  0
 44 45  1  0
 45 46  1  0
 46 47  1  0
 47 48  2  3
 48 49  1  0
 49 50  1  0
 50 51  1  0
 51 52  1  0
 52 53  1  0
 53 54  2  3
 54 55  1  0
 55 56  1  0
 56 57  1  0
 57 58  1  0
 58 59  1  0
 59 60  1  0
 60 61  1  0
 36 62  1  0
 62 63  1  0
 63 64  1  0
 64 65  1  0
 65 66  1  0
 66 67  1  0
 67 68  1  0
 68 69  1  0
 60  1  1  0
  7  2  1  0
 15  4  1  0
 41 17  1  0
 44 20  1  0
M  END
$$$$
