
     RDKit          3D

  6  6  0  0  0  0  0  0  0  0999 V2000
    0.1083   -1.0036    0.2403 C   0  0  0  0  0  0  0  0  0  0  0  0
   -1.1828   -0.9659   -0.0529 C   0  0  0  0  0  0  0  0  0  0  0  0
   -1.5231    0.4665   -0.1279 C   0  0  0  0  0  0  0  0  0  0  0  0
   -0.3412    1.1024   -0.0672 C   0  0  0  0  0  0  0  0  0  0  0  0
    0.7338    0.1228    0.0434 C   0  0  0  0  0  0  0  0  0  0  0  0
    2.2050    0.2778   -0.0357 C   0  0  0  0  0  0  0  0  0  0  0  0
  1  2  2  0
  2  3  1  0
  3  4  2  0
  4  5  1  0
  5  6  1  0
  1  5  2  0
M  END
$$$$
