
     RDKit          3D

  3  2  0  0  0  0  0  0  0  0999 V2000
    1.2268   -0.0610    0.0000 C   0  0  0  0  0  0  0  0  0  0  0  0
   -0.0065    0.1230   -0.0000 N   0  0  0  0  0  4  0  0  0  0  0  0
   -1.2203   -0.0620   -0.0000 N   0  0  0  0  0  2  0  0  0  0  0  0
  1  2  2  0
  2  3  2  0
M  CHG  2   2   1   3  -1
M  END
$$$$
