
     RDKit          3D

 18 18  0  0  0  0  0  0  0  0999 V2000
    1.4255   -0.6553    0.5616 C   0  0  0  0  0  0  0  0  0  0  0  0
    2.7201   -0.0563    0.1700 C   0  0  0  0  0  0  0  0  0  0  0  0
    3.5766   -1.0685   -0.5461 C   0  0  0  0  0  0  0  0  0  0  0  0
    2.6763    1.1831   -0.5953 C   0  0  0  0  0  0  0  0  0  0  0  0
    2.1961    2.3070   -0.0827 C   0  0  0  0  0  0  0  0  0  0  0  0
    1.6961    2.2609    1.3188 C   0  0  0  0  0  0  0  0  0  0  0  0
    0.3526    1.7484    1.2515 O   0  0  0  0  0  0  0  0  0  0  0  0
   -0.4055    2.1378    0.2028 C   0  0  0  0  0  0  0  0  0  0  0  0
   -1.4431    1.5682   -0.3583 C   0  0  0  0  0  0  0  0  0  0  0  0
   -2.1367    2.5978   -1.8493 Br  0  0  0  0  0  0  0  0  0  0  0  0
   -1.9933    0.3767    0.0851 C   0  0  0  0  0  0  0  0  0  0  0  0
   -1.7109   -0.9196    0.0254 C   0  0  0  0  0  0  0  0  0  0  0  0
   -2.6778   -1.7855    0.6972 C   0  0  0  0  0  0  0  0  0  0  0  0
   -3.6877   -1.3321    1.2860 O   0  0  0  0  0  0  0  0  0  0  0  0
   -2.5204   -3.1468    0.7101 O   0  0  0  0  0  0  0  0  0  0  0  0
   -0.5774   -1.4644   -0.6459 C   0  0  0  0  0  0  0  0  0  0  0  0
    0.7026   -1.3964   -0.4833 C   0  0  0  0  0  0  0  0  0  0  0  0
    1.8068   -2.3550   -1.7476 Br  0  0  0  0  0  0  0  0  0  0  0  0
  1  2  1  0
  2  3  1  0
  2  4  1  0
  4  5  2  3
  5  6  1  0
  6  7  1  0
  7  8  1  0
  8  9  2  3
  9 10  1  0
  9 11  1  0
 11 12  2  3
 12 13  1  0
 13 14  2  0
 13 15  1  0
 12 16  1  0
 16 17  2  3
 17 18  1  0
 17  1  1  0
M  END
$$$$
