
     RDKit          2D

 26 29  0  0  0  0  0  0  0  0999 V2000
   -2.6561    9.0086    0.0000 C   0  0  0  0  0  0  0  0  0  0  0  0
   -1.9751   10.3452    0.0000 C   0  0  0  0  0  0  0  0  0  0  0  0
   -0.4771   10.4237    0.0000 C   0  0  0  0  0  0  0  0  0  0  0  0
    0.3398    9.1657    0.0000 C   0  0  0  0  0  0  0  0  0  0  0  0
   -0.3412    7.8291    0.0000 C   0  0  0  0  0  0  0  0  0  0  0  0
   -1.8391    7.7506    0.0000 C   0  0  0  0  0  0  0  0  0  0  0  0
    0.4758    6.5711    0.0000 C   0  0  0  0  0  0  0  0  0  0  0  0
   -0.2052    5.2346    0.0000 C   0  0  0  0  0  0  0  0  0  0  0  0
    0.6118    3.9766    0.0000 C   0  0  0  0  0  3  0  0  0  0  0  0
   -0.0692    2.6401    0.0000 C   0  0  0  0  0  0  0  0  0  0  0  0
    0.1014    0.7779    0.0000 C   0  0  0  0  0  0  0  0  0  0  0  0
    0.2188    0.6831    0.0000 C   0  0  0  0  0  0  0  0  0  0  0  0
    2.9738   -0.9033    0.0000 C   0  0  0  0  0  0  0  0  0  0  0  0
    3.1529   -2.3925    0.0000 N   0  0  0  0  0  0  0  0  0  0  0  0
    4.5322   -2.9820    0.0000 C   0  0  0  0  0  0  0  0  0  0  0  0
    4.7114   -4.4713    0.0000 C   0  0  0  0  0  0  0  0  0  0  0  0
    6.0907   -5.0608    0.0000 N   0  0  0  0  0  0  0  0  0  0  0  0
    6.2698   -6.5501    0.0000 N   0  0  0  0  0  0  0  0  0  0  0  0
    7.6491   -7.1396    0.0000 C   0  0  0  0  0  0  0  0  0  0  0  0
    7.8282   -8.6288    0.0000 C   0  0  0  0  0  0  0  0  0  0  0  0
    0.3943    1.2135    0.0000 C   0  0  0  0  0  0  0  0  0  0  0  0
    1.2760    0.0000    0.0000 N   0  0  0  0  0  0  0  0  0  0  0  0
   -1.0323    0.7500    0.0000 C   0  0  0  0  0  0  0  0  0  0  0  0
   -1.0323   -0.7500    0.0000 C   0  0  0  0  0  0  0  0  0  0  0  0
    0.3943   -1.2135    0.0000 C   0  0  0  0  0  0  0  0  0  0  0  0
   -1.4958    2.1766    0.0000 N   0  0  0  0  0  0  0  0  0  0  0  0
  1  2  2  0
  2  3  1  0
  3  4  2  0
  4  5  1  0
  5  6  2  0
  5  7  1  0
  7  8  1  0
  8  9  1  0
  9 10  1  0
 10 11  1  0
 11 12  2  0
 12 13  1  0
 13 14  1  0
 14 15  1  0
 15 16  2  3
 16 17  1  0
 17 18  1  0
 18 19  2  3
 19 20  1  0
 10 21  1  0
 21 22  2  0
 21 23  1  0
 23 24  1  0
 24 25  2  0
 10 26  1  0
  6  1  1  0
 25 12  1  0
 25 22  1  0
 23 26  2  0
M  RAD  1   9   2
M  END
$$$$
