
     RDKit          3D

 17 16  0  0  0  0  0  0  0  0999 V2000
    5.4625    1.7754    0.9163 C   0  0  0  0  0  0  0  0  0  0  0  0
    4.8679    0.4840    0.4035 C   0  0  0  0  0  0  0  0  0  0  0  0
    3.4937    0.5768    0.3680 O   0  0  0  0  0  0  0  0  0  0  0  0
    2.9446   -0.5185   -0.0692 O   0  0  0  0  0  0  0  0  0  0  0  0
    1.8430   -0.1351   -0.8538 C   0  0  0  0  0  0  0  0  0  0  0  0
    1.2072   -1.4050   -1.3600 C   0  0  0  0  0  0  0  0  0  0  0  0
    0.7869   -2.2007   -0.1213 C   0  0  0  0  0  0  0  0  0  0  0  0
   -0.2025   -1.2963    0.6260 C   0  0  0  0  0  0  0  0  0  0  0  0
   -0.5806   -2.0447    1.7657 O   0  0  0  0  0  0  0  0  0  0  0  0
   -1.3049   -1.0732   -0.2558 N   0  0  0  0  0  3  0  0  0  0  0  0
   -2.1850   -2.6439   -0.7635 Br  0  0  0  0  0  0  0  0  0  0  0  0
   -2.1395   -0.0446    0.1079 N   0  0  0  0  0  3  0  0  0  0  0  0
   -3.3227   -0.5137    0.5678 O   0  0  0  0  0  0  0  0  0  0  0  0
   -1.5475    0.8935    1.0351 C   0  0  0  0  0  0  0  0  0  0  0  0
   -2.5831    1.9632    1.3397 C   0  0  0  0  0  0  0  0  0  0  0  0
   -2.9009    2.5894    0.0538 N   0  0  0  0  0  0  0  0  0  0  0  0
   -3.8389    3.5934    0.1666 N   0  0  0  0  0  1  0  0  0  0  0  0
  1  2  1  0
  2  3  1  0
  3  4  1  0
  4  5  1  0
  5  6  1  0
  6  7  1  0
  7  8  1  0
  8  9  1  0
  8 10  1  0
 10 11  1  0
 10 12  1  0
 12 13  1  0
 12 14  1  0
 14 15  1  0
 15 16  1  0
 16 17  1  0
M  CHG  3  10   1  12   1  17   1
M  RAD  3  10   2  12   2  17   2
M  END
$$$$
