
     RDKit          3D

 35 40  0  0  0  0  0  0  0  0999 V2000
   -5.5504   -0.1909    0.6451 C   0  0  0  0  0  0  0  0  0  0  0  0
   -5.1968    1.0064    1.3511 C   0  0  0  0  0  0  0  0  0  0  0  0
   -5.0945    1.0391    2.8097 C   0  0  0  0  0  0  0  0  0  0  0  0
   -4.7896    2.1807    0.5915 C   0  0  0  0  0  0  0  0  0  0  0  0
   -4.3334    2.0518   -0.6835 C   0  0  0  0  0  0  0  0  0  0  0  0
   -4.2817    0.6499   -1.1429 C   0  0  0  0  0  0  0  0  0  0  0  0
   -5.7085    0.0925   -0.8902 C   0  0  0  0  0  0  0  0  0  0  0  0
   -5.9086   -1.2565   -1.4622 C   0  0  0  0  0  0  0  0  0  0  0  0
   -5.8631   -2.4484   -0.8795 C   0  0  0  0  0  0  0  0  0  0  0  0
   -4.7793   -2.2994    0.2711 C   0  0  0  0  0  0  0  0  0  0  0  0
   -4.3300   -1.0936    0.2474 C   0  0  0  0  0  0  0  0  0  0  0  0
   -3.3773   -0.0718   -0.0483 C   0  0  0  0  0  0  0  0  0  0  0  0
   -2.8955    0.8233    0.9566 C   0  0  0  0  0  0  0  0  0  0  0  0
   -1.6336    0.9473    1.3139 C   0  0  0  0  0  0  0  0  0  0  0  0
   -0.5162    0.1814    0.7328 C   0  0  0  0  0  0  0  0  0  0  0  0
   -0.8757   -1.2332    0.3710 C   0  0  0  0  0  0  0  0  0  0  0  0
   -1.3405   -2.0396    1.5582 C   0  0  0  0  0  0  0  0  0  0  0  0
    0.7077    0.2321    1.6414 C   0  0  0  0  0  0  0  0  0  0  0  0
    1.1416   -1.1195    2.0954 C   0  0  0  0  0  0  0  0  0  0  0  0
    1.5062   -2.0496    0.9684 C   0  0  0  0  0  0  0  0  0  0  0  0
    2.8837   -1.8749    0.4893 C   0  0  0  0  0  0  0  0  0  0  0  0
    3.9632   -2.1746    1.2019 C   0  0  0  0  0  0  0  0  0  0  0  0
    5.3236   -1.9725    0.6551 C   0  0  0  0  0  0  0  0  0  0  0  0
    5.6140   -0.5191    0.3489 C   0  0  0  0  0  0  0  0  0  0  0  0
    6.5745   -0.3956   -0.8385 C   0  0  0  0  0  0  0  0  0  0  0  0
    7.3022    0.9078   -0.7723 C   0  0  0  0  0  0  0  0  0  0  0  0
    7.6593    1.5201   -1.7607 O   0  0  0  0  0  0  0  0  0  0  0  0
   -0.0930    0.8613   -0.5685 C   0  0  0  0  0  0  0  0  0  0  0  0
    0.9542    1.9170   -0.3166 C   0  0  0  0  0  0  0  0  0  0  0  0
    2.0755    1.9150   -1.2836 C   0  0  0  0  0  0  0  0  0  0  0  0
    2.3089    1.5273    0.0878 C   0  0  0  0  0  0  0  0  0  0  0  0
    3.3539    1.5157   -0.7738 C   0  0  0  0  0  0  0  0  0  0  0  0
    4.5568    1.4101   -1.3908 O   0  0  0  0  0  0  0  0  0  0  0  0
    4.8447    0.4201   -2.3240 C   0  0  0  0  0  0  0  0  0  0  0  0
    5.7978   -0.4598   -2.1006 C   0  0  0  0  0  0  0  0  0  0  0  0
  1  2  1  0
  2  3  1  0
  2  4  1  0
  4  5  2  0
  5  6  1  0
  6  7  1  0
  7  8  1  0
  8  9  2  0
  9 10  1  0
 10 11  2  0
  6 12  1  0
 12 13  1  0
 13 14  2  3
 14 15  1  0
 15 16  1  0
 16 17  1  0
 15 18  1  0
 18 19  1  0
 19 20  1  0
 20 21  1  0
 21 22  2  3
 22 23  1  0
 23 24  1  0
 24 25  1  0
 25 26  1  0
 26 27  2  0
 15 28  1  0
 28 29  1  0
 29 30  1  0
 30 31  1  0
 31 32  2  0
 32 33  1  0
 33 34  1  0
 34 35  2  3
  7  1  1  0
 11  1  1  0
 12 11  1  0
 35 25  1  0
 31 29  1  0
 32 30  1  0
M  END
$$$$
