
     RDKit          3D

 35 35  0  0  0  0  0  0  0  0999 V2000
   -4.4736   -1.6315    1.0286 C   0  0  0  0  0  0  0  0  0  0  0  0
   -3.9410   -0.7201    2.1049 C   0  0  0  0  0  0  0  0  0  0  0  0
   -5.0107   -0.4413    3.1257 C   0  0  0  0  0  0  0  0  0  0  0  0
   -3.4593    0.5543    1.4238 C   0  0  0  0  0  0  0  0  0  0  0  0
   -4.4289    1.6657    1.7222 C   0  0  0  0  0  0  0  0  0  0  0  0
   -4.6307    2.5990    0.5703 C   0  0  0  0  0  0  0  0  0  0  0  0
   -3.4158    2.7665   -0.2920 C   0  0  1  0  0  0  0  0  0  0  0  0
   -3.8079    3.5066   -1.5439 C   0  0  0  0  0  0  0  0  0  0  0  0
   -2.3313    3.5760    0.3907 C   0  0  0  0  0  0  0  0  0  0  0  0
   -0.9716    2.9824    0.2244 C   0  0  0  0  0  0  0  0  0  0  0  0
    0.0372    3.9462   -0.3552 C   0  0  0  0  0  0  0  0  0  0  0  0
    1.1441    3.1314   -1.0190 C   0  0  2  0  0  0  0  0  0  0  0  0
    0.6278    2.7016   -2.3703 C   0  0  0  0  0  0  0  0  0  0  0  0
    1.4136    1.9163   -0.1749 C   0  0  0  0  0  0  0  0  0  0  0  0
    1.2090    0.6571   -1.0063 C   0  0  0  0  0  0  0  0  0  0  0  0
    2.1873   -0.3659   -0.5126 C   0  0  2  0  0  0  0  0  0  0  0  0
    3.5915    0.1237   -0.7125 C   0  0  0  0  0  3  0  0  0  0  0  0
    3.7329    1.4200    0.0824 C   0  0  0  0  0  0  0  0  0  0  0  0
    5.1664    1.8881   -0.1424 C   0  0  0  0  0  0  0  0  0  0  0  0
    5.3847    2.1065   -1.5145 O   0  0  0  0  0  0  0  0  0  0  0  0
    6.0599    0.7313    0.2506 C   0  0  0  0  0  3  0  0  0  0  0  0
    5.8436    0.3632    1.7037 C   0  0  0  0  0  3  0  0  0  0  0  0
    6.7443   -0.7876    2.0866 C   0  0  0  0  0  3  0  0  0  0  0  0
    7.0462   -1.5023    0.9386 O   0  0  0  0  0  0  0  0  0  0  0  0
    1.9405   -1.7313   -1.0810 C   0  0  2  0  0  0  0  0  0  0  0  0
    1.3315   -1.7140   -2.3249 O   0  0  0  0  0  0  0  0  0  0  0  0
    1.2077   -2.6289   -0.1116 C   0  0  1  0  0  0  0  0  0  0  0  0
    0.8260   -1.7733    1.0839 C   0  0  0  0  0  2  0  0  0  0  0  0
   -0.0561   -3.1980   -0.7119 C   0  0  0  0  0  0  0  0  0  0  0  0
   -1.4194   -1.9478   -0.6780 P   0  0  0  0  0  0  0  0  0  0  0  0
   -3.0547   -2.7829   -0.5847 C   0  0  2  0  0  0  0  0  0  0  0  0
   -3.5580   -2.8213    0.8352 C   0  0  2  0  0  0  0  0  0  0  0  0
   -4.2717   -4.1331    1.0380 C   0  0  0  0  0  2  0  0  0  0  0  0
   -3.0619   -4.1259   -1.1942 C   0  0  0  0  0  0  0  0  0  0  0  0
   -3.6019   -4.3309   -2.2796 O   0  0  0  0  0  0  0  0  0  0  0  0
  1  2  1  0
  2  3  1  0
  2  4  1  0
  4  5  1  0
  5  6  1  0
  6  7  1  0
  7  8  1  6
  7  9  1  0
  9 10  1  0
 10 11  1  0
 11 12  1  0
 12 13  1  6
 12 14  1  0
 14 15  1  0
 15 16  1  0
 16 17  1  6
 17 18  1  0
 18 19  1  0
 19 20  1  0
 19 21  1  0
 21 22  1  0
 22 23  1  0
 23 24  1  0
 16 25  1  0
 25 26  1  6
 25 27  1  0
 27 28  1  1
 27 29  1  0
 29 30  1  0
 30 31  1  0
 31 32  1  0
 32 33  1  6
 31 34  1  1
 34 35  2  0
 32  1  1  0
M  RAD  6  17   2  21   2  22   2  23   2  28   3  33   3
M  END
$$$$
