
     RDKit          3D

 23 25  0  0  0  0  0  0  0  0999 V2000
    0.9460    1.9688    1.5490 C   0  0  0  0  0  0  0  0  0  0  0  0
    1.1480    1.1643    0.2723 C   0  0  1  0  0  0  0  0  0  0  0  0
    2.3895    1.6790   -0.4496 C   0  0  0  0  0  0  0  0  0  0  0  0
    3.2626    0.5292   -0.9075 C   0  0  2  0  0  0  0  0  0  0  0  0
    2.5689   -0.3329   -1.7558 O   0  0  0  0  0  0  0  0  0  0  0  0
    3.8215   -0.2481    0.2798 C   0  0  2  0  0  0  0  0  0  0  0  0
    4.0698   -1.5718   -0.1560 O   0  0  0  0  0  0  0  0  0  0  0  0
    2.6902   -0.3888    1.3051 C   0  0  1  0  0  0  0  0  0  0  0  0
    2.7750    0.7347    2.1543 O   0  0  0  0  0  0  0  0  0  0  0  0
    1.3444   -0.3015    0.6132 C   0  0  1  0  0  0  0  0  0  0  0  0
    0.3496   -0.7632    1.5009 N   0  0  0  0  0  0  0  0  0  0  0  0
   -0.9978   -0.7685    1.0792 C   0  0  1  0  0  0  0  0  0  0  0  0
   -1.4640    0.5872    0.7959 C   0  0  0  0  0  0  0  0  0  0  0  0
   -1.8138    0.9915   -0.5585 C   0  0  0  0  0  0  0  0  0  0  0  0
   -1.9467    0.1701   -1.7408 C   0  0  0  0  0  2  0  0  0  0  0  0
   -1.7807    2.5063   -0.8119 C   0  0  0  0  0  0  0  0  0  0  0  0
   -2.6767    3.1490    0.0298 O   0  0  0  0  0  0  0  0  0  0  0  0
   -3.1750    0.3506   -0.9096 C   0  0  1  0  0  0  0  0  0  0  0  0
   -3.4679   -0.7005   -0.0440 O   0  0  0  0  0  0  0  0  0  0  0  0
   -2.7364   -1.8089   -0.3931 C   0  0  2  0  0  0  0  0  0  0  0  0
   -3.5046   -3.0422    0.0274 C   0  0  0  0  0  0  0  0  0  0  0  0
   -1.3582   -1.8604    0.1348 C   0  0  1  0  0  0  0  0  0  0  0  0
   -0.4437   -2.0437   -0.8915 O   0  0  0  0  0  0  0  0  0  0  0  0
  2  1  1  1
  2  3  1  0
  3  4  1  0
  4  5  1  6
  4  6  1  0
  6  7  1  6
  6  8  1  0
  8  9  1  1
  8 10  1  0
 10 11  1  1
 12 11  1  6
 12 13  1  0
 13 14  1  0
 14 15  1  0
 14 16  1  0
 16 17  1  0
 14 18  1  0
 18 19  1  0
 19 20  1  0
 20 21  1  1
 20 22  1  0
 22 23  1  6
 10  2  1  0
 22 12  1  0
 18 15  1  6
M  RAD  1  15   3
M  END
$$$$
