
     RDKit          3D

  7  6  0  0  0  0  0  0  0  0999 V2000
   -2.0846    1.2150    0.1320 C   0  0  0  0  0  0  0  0  0  0  0  0
   -1.7154   -0.1668    0.6027 C   0  0  0  0  0  0  0  0  0  0  0  0
   -0.0727   -0.5437   -0.0049 S   0  0  0  0  0  0  0  0  0  0  0  0
    0.8915    0.7011    0.3303 C   0  0  0  0  0  0  0  0  0  0  0  0
    2.6219    0.7211   -0.1130 S   0  0  0  0  0  0  0  0  0  0  0  0
    3.0052   -0.8391   -0.7134 F   0  0  0  0  0  0  0  0  0  0  0  0
   -2.6459   -1.0877    0.2274 F   0  0  0  0  0  0  0  0  0  0  0  0
  1  2  1  0
  2  3  1  0
  3  4  2  3
  4  5  1  0
  5  6  1  0
  2  7  1  0
M  END
$$$$
