
     RDKit          3D

  5  4  0  0  0  0  0  0  0  0999 V2000
    1.6877   -0.1391   -0.5761 C   0  0  0  0  0  0  0  0  0  0  0  0
    0.9937    0.6630    0.3521 O   0  0  0  0  0  0  0  0  0  0  0  0
   -0.0010   -0.1557    0.8926 C   0  0  0  0  0  0  0  0  0  0  0  0
   -0.8297   -0.5695   -0.2176 N   0  0  0  0  0  0  0  0  0  0  0  0
   -1.8507    0.2012   -0.4509 C   0  0  0  0  0  0  0  0  0  0  0  0
  1  2  1  0
  2  3  1  0
  3  4  1  0
  4  5  2  0
M  END
$$$$
