
     RDKit          3D

 32 33  0  0  0  0  0  0  0  0999 V2000
   -2.0404    4.4081    0.3730 C   0  0  0  0  0  0  0  0  0  0  0  0
   -0.8030    3.9528    1.0968 C   0  0  0  0  0  0  0  0  0  0  0  0
   -0.7803    4.5534    2.4813 C   0  0  0  0  0  0  0  0  0  0  0  0
    0.4690    4.3534    0.4022 C   0  0  0  0  0  0  0  0  0  0  0  0
    1.5072    3.2548    0.5338 C   0  0  0  0  0  0  0  0  0  0  0  0
    2.1125    3.0654   -0.8486 C   0  0  0  0  0  0  0  0  0  0  0  0
    3.1866    2.0144   -0.8640 C   0  0  1  0  0  0  0  0  0  0  0  0
    4.0097    2.2305   -2.1239 C   0  0  0  0  0  0  0  0  0  0  0  0
    4.0348    2.0221    0.3793 C   0  0  0  0  0  3  0  0  0  0  0  0
    3.8005    0.7520    1.1550 C   0  0  0  0  0  0  0  0  0  0  0  0
    4.8752   -0.2715    0.9011 C   0  0  0  0  0  3  0  0  0  0  0  0
    4.3110   -1.4672    0.1858 C   0  0  0  0  0  3  0  0  0  0  0  0
    3.7941   -1.0438   -1.1675 C   0  0  0  0  0  2  0  0  0  0  0  0
    3.2323   -2.1057    1.0178 C   0  0  0  0  0  3  0  0  0  0  0  0
    3.3574   -3.6053    0.8521 C   0  0  0  0  0  3  0  0  0  0  0  0
    2.0007   -4.2216    0.5736 C   0  0  0  0  0  0  0  0  0  0  0  0
    1.5490   -3.8098   -0.8224 C   0  0  1  0  0  0  0  0  0  0  0  0
    1.4123   -5.0626   -1.6487 C   0  0  0  0  0  2  0  0  0  0  0  0
    0.2483   -3.0545   -0.7567 C   0  0  0  0  0  3  0  0  0  0  0  0
   -0.2537   -2.9138    0.6589 C   0  0  0  0  0  0  0  0  0  0  0  0
   -1.7384   -3.1279    0.7716 C   0  0  0  0  0  0  0  0  0  0  0  0
   -2.5174   -2.4750   -0.3392 C   0  0  0  0  0  0  0  0  0  0  0  0
   -3.8301   -1.9906    0.2505 C   0  0  0  0  0  0  0  0  0  0  0  0
   -4.9367   -2.0907   -0.7629 C   0  0  0  0  0  2  0  0  0  0  0  0
   -4.1562   -2.8652    1.4529 C   0  0  0  0  0  2  0  0  0  0  0  0
   -3.7273   -0.6895    0.7034 O   0  0  0  0  0  0  0  0  0  0  0  0
   -4.3927    0.2312   -0.0773 C   0  0  0  0  0  0  0  0  0  0  0  0
   -4.2160    0.3278   -1.5290 C   0  0  0  0  0  3  0  0  0  0  0  0
   -3.2707    1.1105   -0.7128 C   0  0  0  0  0  3  0  0  0  0  0  0
   -3.5561    2.5130   -0.2745 C   0  0  0  0  0  0  0  0  0  0  0  0
   -2.4277    3.4181   -0.6942 C   0  0  2  0  0  0  0  0  0  0  0  0
   -1.2541    2.5873   -1.1677 C   0  0  0  0  0  2  0  0  0  0  0  0
  1  2  1  0
  2  3  1  0
  2  4  1  0
  4  5  1  0
  5  6  1  0
  6  7  1  0
  7  8  1  6
  7  9  1  0
  9 10  1  0
 10 11  1  0
 11 12  1  0
 12 13  1  0
 12 14  1  0
 14 15  1  0
 15 16  1  0
 16 17  1  0
 17 18  1  6
 17 19  1  0
 19 20  1  0
 20 21  1  0
 21 22  1  0
 22 23  1  0
 23 24  1  0
 23 25  1  0
 23 26  1  0
 26 27  1  0
 27 28  1  0
 28 29  1  0
 29 30  1  0
 30 31  1  0
 31 32  1  1
 31  1  1  0
 29 27  1  0
M  RAD  8   9   2  11   2  12   2  13   3  14   2  15   2  18   3  19   2
M  RAD  5  24   3  25   3  28   2  29   2  32   3
M  END
$$$$
