
     RDKit          3D

 15 14  0  0  0  0  0  0  0  0999 V2000
    4.9841    1.0069   -0.3968 C   0  0  0  0  0  0  0  0  0  0  0  0
    5.2318    0.1779    0.8625 C   0  0  0  0  0  0  0  0  0  0  0  0
    3.9603   -0.0613    1.6351 C   0  0  0  0  0  0  0  0  0  0  0  0
    2.9856   -0.7965    0.7759 C   0  0  0  0  0  0  0  0  0  0  0  0
    2.6642   -0.0102   -0.4475 C   0  0  0  0  0  0  0  0  0  0  0  0
    1.6674   -0.7712   -1.3182 C   0  0  0  0  0  0  0  0  0  0  0  0
    0.4669   -0.9794   -0.5352 N   0  0  0  0  0  0  0  0  0  0  0  0
   -0.2354    0.2440   -0.2681 C   0  0  0  0  0  0  0  0  0  0  0  0
   -1.3803   -0.0213    0.4875 O   0  0  0  0  0  0  0  0  0  0  0  0
   -2.4299   -0.8271    0.1252 C   0  0  0  0  0  0  0  0  0  0  0  0
   -2.2594   -2.2885    0.1173 C   0  0  0  0  0  0  0  0  0  0  0  0
   -3.5834   -0.3131   -0.2143 C   0  0  0  0  0  0  0  0  0  0  0  0
   -3.8598    1.1195   -0.2409 C   0  0  0  0  0  0  0  0  0  0  0  0
   -5.2198    1.5456   -0.6487 C   0  0  0  0  0  0  0  0  0  0  0  0
   -2.9924    1.9745    0.0664 O   0  0  0  0  0  0  0  0  0  0  0  0
  1  2  1  0
  2  3  1  0
  3  4  1  0
  4  5  1  0
  5  6  1  0
  6  7  1  0
  7  8  1  0
  8  9  1  0
  9 10  1  0
 10 11  1  0
 10 12  2  3
 12 13  1  0
 13 14  1  0
 13 15  2  0
M  END
$$$$
