
     RDKit          3D

 23 24  0  0  0  0  0  0  0  0999 V2000
    1.1422    1.1611    1.5770 C   0  0  0  0  0  0  0  0  0  0  0  0
    1.6185    1.3201    0.1472 C   0  0  1  0  0  0  0  0  0  0  0  0
    3.1007    1.6671    0.2099 C   0  0  0  0  0  0  0  0  0  0  0  0
    3.7928    0.3945    0.6629 C   0  0  2  0  0  0  0  0  0  0  0  0
    5.0832    0.6437    1.1109 O   0  0  0  0  0  0  0  0  0  0  0  0
    3.8055   -0.5493   -0.5233 C   0  0  2  0  0  0  0  0  0  0  0  0
    4.8340   -0.1255   -1.3648 O   0  0  0  0  0  0  0  0  0  0  0  0
    2.5306   -0.5274   -1.2855 C   0  0  1  0  0  0  0  0  0  0  0  0
    2.2019   -1.8370   -1.6559 O   0  0  0  0  0  0  0  0  0  0  0  0
    1.3477    0.0585   -0.5957 C   0  0  1  0  0  0  0  0  0  0  0  0
    0.5520   -0.8866    0.1319 N   0  0  0  0  0  0  0  0  0  0  0  0
   -0.7487   -0.2774    0.3790 C   0  0  1  0  0  0  0  0  0  0  0  0
   -1.4828    0.0169   -0.9333 C   0  0  0  0  0  0  0  0  0  0  0  0
   -2.4422    1.1787   -0.7269 C   0  0  2  0  0  0  0  0  0  0  0  0
   -3.4861    1.1584   -1.6554 O   0  0  0  0  0  0  0  0  0  0  0  0
   -1.6995    2.4887   -0.8424 C   0  0  0  0  0  0  0  0  0  0  0  0
   -2.9538    1.0795    0.5652 O   0  0  0  0  0  0  0  0  0  0  0  0
   -3.7682   -0.0345    0.7492 C   0  0  1  0  0  0  0  0  0  0  0  0
   -4.8103   -0.0716   -0.2006 O   0  0  0  0  0  0  0  0  0  0  0  0
   -3.0037   -1.3316    0.6498 C   0  0  1  0  0  0  0  0  0  0  0  0
   -2.9738   -1.8179   -0.6539 O   0  0  0  0  0  0  0  0  0  0  0  0
   -1.5969   -1.2110    1.2033 C   0  0  1  0  0  0  0  0  0  0  0  0
   -1.0431   -2.4974    1.1005 O   0  0  0  0  0  0  0  0  0  0  0  0
  2  1  1  1
  2  3  1  0
  3  4  1  0
  4  5  1  6
  4  6  1  0
  6  7  1  6
  6  8  1  0
  8  9  1  1
  8 10  1  0
 10 11  1  1
 12 11  1  6
 12 13  1  0
 13 14  1  0
 14 15  1  0
 14 16  1  1
 14 17  1  0
 17 18  1  0
 18 19  1  6
 18 20  1  0
 20 21  1  6
 20 22  1  0
 22 23  1  6
 10  2  1  0
 22 12  1  0
M  END
$$$$
