
     RDKit          3D

 24 25  0  0  0  0  0  0  0  0999 V2000
   -2.9927   -0.9632   -1.6072 C   0  0  0  0  0  0  0  0  0  0  0  0
   -1.9052    0.0972   -1.3971 C   0  0  1  0  0  0  0  0  0  0  0  0
   -2.6286    1.4428   -1.3967 C   0  0  0  0  0  0  0  0  0  0  0  0
   -3.3568    1.6229   -0.0843 C   0  0  2  0  0  0  0  0  0  0  0  0
   -2.4780    2.3050    0.7620 O   0  0  0  0  0  0  0  0  0  0  0  0
   -3.6279    0.2448    0.4891 C   0  0  2  0  0  0  0  0  0  0  0  0
   -4.5725    0.3111    1.5095 O   0  0  0  0  0  0  0  0  0  0  0  0
   -2.2987   -0.2550    1.0425 C   0  0  1  0  0  0  0  0  0  0  0  0
   -2.3819   -1.5577    1.5095 O   0  0  0  0  0  0  0  0  0  0  0  0
   -1.2624   -0.1290   -0.0466 C   0  0  1  0  0  0  0  0  0  0  0  0
   -0.5086   -1.3596   -0.0760 N   0  0  0  0  0  0  0  0  0  0  0  0
    0.7295   -1.2540    0.6813 C   0  0  1  0  0  0  0  0  0  0  0  0
    1.7473   -2.0458   -0.1480 C   0  0  0  0  0  0  0  0  0  0  0  0
    3.1041   -1.5910    0.3297 C   0  0  0  0  0  0  0  0  0  0  0  0
    3.0913   -0.9562    1.5560 O   0  0  0  0  0  0  0  0  0  0  0  0
    3.7149   -0.7162   -0.7373 C   0  0  1  0  0  0  0  0  0  0  0  0
    3.4842   -1.2248   -1.9820 O   0  0  0  0  0  0  0  0  0  0  0  0
    3.2303    0.6969   -0.6011 C   0  0  1  0  0  0  0  0  0  0  0  0
    3.6162    1.4512   -1.7086 O   0  0  0  0  0  0  0  0  0  0  0  0
    1.6991    0.6835   -0.5534 C   0  0  1  0  0  0  0  0  0  0  0  0
    1.3042   -0.1723   -1.5994 O   0  0  0  0  0  0  0  0  0  0  0  0
    1.2337    0.1573    0.7911 C   0  0  1  0  0  0  0  0  0  0  0  0
    0.3775    0.9889    1.4251 O   0  0  0  0  0  0  0  0  0  0  0  0
    0.6809    2.2233    1.5349 O   0  0  0  0  0  0  0  0  0  0  0  0
  2  1  1  1
  2  3  1  0
  3  4  1  0
  4  5  1  1
  4  6  1  0
  6  7  1  1
  6  8  1  0
  8  9  1  6
  8 10  1  0
 10 11  1  6
 12 11  1  6
 12 13  1  0
 13 14  1  0
 14 15  1  0
 14 16  1  0
 16 17  1  6
 16 18  1  0
 18 19  1  6
 18 20  1  0
 20 21  1  6
 20 22  1  0
 22 23  1  6
 23 24  1  0
 10  2  1  0
 22 12  1  0
M  END
$$$$
