
     RDKit          3D

 71 72  0  0  0  0  0  0  0  0999 V2000
   -4.2289    0.6418    2.9940 C   0  0  0  0  0  0  0  0  0  0  0  0
   -3.0424    1.3940    2.4321 C   0  0  0  0  0  0  0  0  0  0  0  0
   -2.3976    2.1809    3.5712 C   0  0  0  0  0  0  0  0  0  0  0  0
   -3.5498    2.4166    1.4262 C   0  0  0  0  0  0  0  0  0  0  0  0
   -4.0534    1.7771    0.1607 C   0  0  0  0  0  0  0  0  0  0  0  0
   -4.8522    2.8051   -0.5932 C   0  0  0  0  0  0  0  0  0  0  0  0
   -6.1821    2.2946   -1.0744 C   0  0  1  0  0  0  0  0  0  0  0  0
   -6.2533    2.2784   -2.6023 C   0  0  0  0  0  0  0  0  0  0  0  0
   -6.3830    0.8981   -0.5925 C   0  0  0  0  0  3  0  0  0  0  0  0
   -7.1236    0.7367    0.6736 C   0  0  0  0  0  0  0  0  0  0  0  0
   -8.5655    0.5176    0.6052 C   0  0  0  0  0  0  0  0  0  0  0  0
   -9.0962   -0.6160    1.4187 C   0  0  2  0  0  0  0  0  0  0  0  0
   -8.3186   -0.9287    2.6523 C   0  0  0  0  0  0  0  0  0  0  0  0
   -9.4552   -1.8352    0.6206 C   0  0  0  0  0  3  0  0  0  0  0  0
  -10.2242   -1.5073   -0.6196 C   0  0  0  0  0  0  0  0  0  0  0  0
   -9.6662   -2.2499   -1.8408 C   0  0  0  0  0  0  0  0  0  0  0  0
   -8.1489   -2.1405   -1.7139 C   0  0  2  0  0  0  0  0  0  0  0  0
   -7.4871   -2.0880   -3.0553 C   0  0  0  0  0  2  0  0  0  0  0  0
   -7.6823   -3.2842   -0.8656 C   0  0  0  0  0  0  0  0  0  0  0  0
   -6.4183   -2.9691   -0.1012 C   0  0  0  0  0  0  0  0  0  0  0  0
   -6.5691   -3.5413    1.2865 C   0  0  0  0  0  0  0  0  0  0  0  0
   -5.2907   -3.7237   -0.7926 C   0  0  0  0  0  2  0  0  0  0  0  0
   -6.1386   -1.4987   -0.0276 C   0  0  0  0  0  0  0  0  0  0  0  0
   -5.7332   -1.1004    1.3785 C   0  0  2  0  0  0  0  0  0  0  0  0
   -6.3826    0.1470    1.8085 C   0  0  0  0  0  0  0  0  0  0  0  0
   -5.5355    1.1886    2.4680 C   0  0  1  0  0  0  0  0  0  0  0  0
   -6.3095    1.8941    3.5684 C   0  0  0  0  0  0  0  0  0  0  0  0
   -7.8447    2.5293    2.8592 S   0  0  0  0  0  0  0  0  0  0  0  0
   -7.4628    3.8538    1.6616 C   0  0  0  0  0  3  0  0  0  0  0  0
   -8.6889    4.4701    1.0722 C   0  0  0  0  0  0  0  0  0  0  0  0
   -9.1041    3.7634   -0.1785 C   0  0  0  0  0  3  0  0  0  0  0  0
  -10.3441    4.3946   -0.7660 C   0  0  0  0  0  2  0  0  0  0  0  0
   -4.2869   -1.2689    1.6414 C   0  0  0  0  0  0  0  0  0  0  0  0
   -3.8145   -2.6885    1.4745 C   0  0  0  0  0  0  0  0  0  0  0  0
   -2.3429   -2.8281    1.7471 C   0  0  0  0  0  0  0  0  0  0  0  0
   -1.5440   -1.9439    0.7793 C   0  0  2  0  0  0  0  0  0  0  0  0
   -1.8643   -2.4051   -0.6351 C   0  0  0  0  0  0  0  0  0  0  0  0
   -0.0516   -2.1274    1.0857 C   0  0  0  0  0  0  0  0  0  0  0  0
    0.7689   -1.2383    0.1217 C   0  0  0  0  0  0  0  0  0  0  0  0
    0.3355    0.1781    0.3682 C   0  0  0  0  0  2  0  0  0  0  0  0
    0.3032   -1.7168   -1.2690 C   0  0  0  0  0  0  0  0  0  0  0  0
    2.2052   -1.5124    0.3389 C   0  0  0  0  0  3  0  0  0  0  0  0
    3.2260   -0.7435   -0.3271 C   0  0  2  0  0  0  0  0  0  0  0  0
    3.3318   -0.6453   -1.7820 C   0  0  2  0  0  0  0  0  0  0  0  0
    2.1438   -0.0197   -2.4912 C   0  0  0  0  0  0  0  0  0  0  0  0
    3.7089   -1.9582   -2.4573 C   0  0  2  0  0  0  0  0  0  0  0  0
    5.0421   -2.3987   -1.9227 C   0  0  0  0  0  0  0  0  0  0  0  0
    3.8436   -1.6843   -3.9335 C   0  0  0  0  0  0  0  0  0  0  0  0
    4.2149   -2.8949   -4.7346 C   0  0  0  0  0  0  0  0  0  0  0  0
    4.3156   -2.5966   -6.1964 C   0  0  0  0  0  3  0  0  0  0  0  0
    5.3597   -1.5751   -6.5273 C   0  0  0  0  0  0  0  0  0  0  0  0
    6.7528   -1.9933   -6.1804 C   0  0  0  0  0  3  0  0  0  0  0  0
    6.9180   -2.2719   -4.7114 C   0  0  0  0  0  2  0  0  0  0  0  0
    4.5740   -0.8806    0.3142 C   0  0  0  0  0  0  0  0  0  0  0  0
    5.6050   -0.0456   -0.4165 C   0  0  0  0  0  0  0  0  0  0  0  0
    6.9645   -0.1496    0.1811 C   0  0  2  0  0  0  0  0  0  0  0  0
    7.5437   -1.5221    0.2055 C   0  0  0  0  0  0  0  0  0  0  0  0
    7.1954    0.6477    1.4173 C   0  0  0  0  0  3  0  0  0  0  0  0
    6.9882    2.1084    1.1277 C   0  0  0  0  0  3  0  0  0  0  0  0
    8.2160    2.8044    0.6280 C   0  0  0  0  0  0  0  0  0  0  0  0
    9.3713    2.7551    1.6006 C   0  0  0  0  0  3  0  0  0  0  0  0
    9.7985    1.3319    1.9107 C   0  0  0  0  0  0  0  0  0  0  0  0
   10.2395    0.5942    0.6913 C   0  0  0  0  0  3  0  0  0  0  0  0
   11.9720    0.7313    0.3332 S   0  0  0  0  0  0  0  0  0  0  0  0
   12.9752    1.6076    1.5007 C   0  0  2  0  0  0  0  0  0  0  0  0
   13.1992    0.9787    2.8198 C   0  0  2  0  0  0  0  0  0  0  0  0
   11.9661    0.7265    3.5995 C   0  0  0  0  0  0  0  0  0  0  0  0
   14.1156    1.9024    3.6261 C   0  0  0  0  0  0  0  0  0  0  0  0
   13.4769    3.2574    3.8074 C   0  0  0  0  0  2  0  0  0  0  0  0
   12.7407    3.0838    1.5461 C   0  0  0  0  0  0  0  0  0  0  0  0
   13.0252    3.7025    0.1929 C   0  0  0  0  0  2  0  0  0  0  0  0
  1  2  1  0
  2  3  1  0
  2  4  1  0
  4  5  1  0
  5  6  1  0
  6  7  1  0
  7  8  1  6
  7  9  1  0
  9 10  1  0
 10 11  1  0
 11 12  1  0
 12 13  1  1
 12 14  1  0
 14 15  1  0
 15 16  1  0
 16 17  1  0
 17 18  1  6
 17 19  1  0
 19 20  1  0
 20 21  1  0
 20 22  1  0
 20 23  1  0
 23 24  1  0
 24 25  1  0
 25 26  1  0
 26 27  1  1
 27 28  1  0
 28 29  1  0
 29 30  1  0
 30 31  1  0
 31 32  1  0
 24 33  1  6
 33 34  1  0
 34 35  1  0
 35 36  1  0
 36 37  1  6
 36 38  1  0
 38 39  1  0
 39 40  1  0
 39 41  1  0
 39 42  1  0
 43 42  1  6
 43 44  1  0
 44 45  1  6
 44 46  1  0
 46 47  1  1
 46 48  1  0
 48 49  1  0
 49 50  1  0
 50 51  1  0
 51 52  1  0
 52 53  1  0
 43 54  1  0
 54 55  1  0
 55 56  1  0
 56 57  1  1
 56 58  1  0
 58 59  1  0
 59 60  1  0
 60 61  1  0
 61 62  1  0
 62 63  1  0
 63 64  1  0
 64 65  1  0
 65 66  1  0
 66 67  1  1
 66 68  1  0
 68 69  1  0
 65 70  1  1
 70 71  1  0
 26  1  1  0
 25 10  1  0
M  RAD  8   9   2  14   2  18   3  22   3  29   2  31   2  32   3  40   3
M  RAD  8  42   2  50   2  52   2  53   3  58   2  59   2  61   2  63   2
M  RAD  2  69   3  71   3
M  END
$$$$
