
     RDKit          3D

 88 93  0  0  0  0  0  0  0  0999 V2000
   17.6466    2.5727    0.3219 C   0  0  0  0  0  0  0  0  0  0  0  0
   16.4655    1.9327    0.7407 O   0  0  0  0  0  0  0  0  0  0  0  0
   16.3596    0.5659    0.8930 C   0  0  0  0  0  0  0  0  0  0  0  0
   17.4474   -0.2328    0.6295 C   0  0  0  0  0  0  0  0  0  0  0  0
   17.3703   -1.5897    0.7729 C   0  0  0  0  0  0  0  0  0  0  0  0
   16.1873   -2.1492    1.1852 C   0  0  0  0  0  0  0  0  0  0  0  0
   15.0759   -1.3908    1.4594 C   0  0  0  0  0  0  0  0  0  0  0  0
   15.1813   -0.0016    1.3044 C   0  0  0  0  0  0  0  0  0  0  0  0
   14.0269    0.8771    1.5826 C   0  0  0  0  0  0  0  0  0  0  0  0
   13.4431    1.3163    0.2548 C   0  0  0  0  0  0  0  0  0  0  0  0
   13.0140    0.1030   -0.5066 C   0  0  0  0  0  0  0  0  0  0  0  0
   12.4157    0.4040   -1.8322 C   0  0  0  0  0  0  0  0  0  0  0  0
   11.9963   -0.7981   -2.5769 C   0  0  0  0  0  0  0  0  0  0  0  0
   13.1454   -1.7388   -2.8537 C   0  0  0  0  0  0  0  0  0  0  0  0
   11.5705    1.6074   -1.9207 C   0  0  0  0  0  0  0  0  0  0  0  0
   10.3778    1.6607   -1.0317 C   0  0  0  0  0  0  0  0  0  0  0  0
    9.3940    0.5840   -1.2169 C   0  0  0  0  0  0  0  0  0  0  0  0
    9.7752   -0.7573   -0.9667 N   0  0  0  0  0  0  0  0  0  0  0  0
   10.0622   -1.1284    0.3605 N   0  0  0  0  0  0  0  0  0  0  0  0
    8.1440    0.7861   -1.5936 C   0  0  0  0  0  0  0  0  0  0  0  0
    7.5249    2.0789   -1.8875 C   0  0  0  0  0  0  0  0  0  0  0  0
    7.0037    2.1697   -3.3059 C   0  0  0  0  0  0  0  0  0  0  0  0
    8.1223    1.9781   -4.3102 C   0  0  0  0  0  0  0  0  0  0  0  0
    5.8746    1.2199   -3.5603 C   0  0  0  0  0  0  0  0  0  0  0  0
    4.7428    1.5511   -2.6179 C   0  0  0  0  0  0  0  0  0  0  0  0
    5.1100    1.4469   -1.1847 C   0  0  0  0  0  0  0  0  0  0  0  0
    4.4614    0.5976   -0.4214 C   0  0  0  0  0  0  0  0  0  0  0  0
    4.8302    0.4956    1.0100 C   0  0  0  0  0  0  0  0  0  0  0  0
    6.3136    0.6351    1.2579 C   0  0  0  0  0  0  0  0  0  0  0  0
    7.0006   -0.6350    1.5099 C   0  0  0  0  0  0  0  0  0  0  0  0
    6.8639   -1.3218    2.6568 C   0  0  0  0  0  0  0  0  0  0  0  0
    7.5543   -2.5755    2.8798 C   0  0  0  0  0  0  0  0  0  0  0  0
    7.2892   -3.7122    2.2616 C   0  0  0  0  0  0  0  0  0  0  0  0
    6.2955   -3.8804    1.2916 N   0  0  0  0  0  0  0  0  0  0  0  0
    6.4586   -3.6647    0.0312 C   0  0  0  0  0  0  0  0  0  0  0  0
    5.4513   -3.8375   -0.9331 N   0  0  0  0  0  0  0  0  0  0  0  0
    4.0459   -3.8109   -0.6102 C   0  0  0  0  0  0  0  0  0  0  0  0
    3.3024   -2.7324   -0.8929 C   0  0  0  0  0  0  0  0  0  0  0  0
    3.8660   -1.5409   -1.5352 C   0  0  0  0  0  0  0  0  0  0  0  0
    3.3907   -0.2374   -0.9900 C   0  0  1  0  0  0  0  0  0  0  0  0
    1.9019   -0.3331   -0.0029 S   0  0  0  0  0  0  0  0  0  0  0  0
    1.1190    1.3020    0.0364 C   0  0  0  0  0  0  0  0  0  0  0  0
    2.0226    2.2204    0.7713 C   0  0  0  0  0  0  0  0  0  0  0  0
    1.7124    2.5817    2.0039 C   0  0  0  0  0  3  0  0  0  0  0  0
    0.5173    2.1287    2.7027 C   0  0  0  0  0  0  0  0  0  0  0  0
   -0.3042    1.3060    2.0609 C   0  0  0  0  0  0  0  0  0  0  0  0
   -1.5203    0.7930    2.6594 C   0  0  0  0  0  0  0  0  0  0  0  0
   -2.2889   -0.0172    1.9694 C   0  0  0  0  0  0  0  0  0  0  0  0
   -1.9149   -0.3992    0.5969 C   0  0  0  0  0  0  0  0  0  0  0  0
   -2.9505   -0.0173   -0.4162 C   0  0  0  0  0  0  0  0  0  0  0  0
   -3.2428    1.4149   -0.5001 C   0  0  0  0  0  0  0  0  0  0  0  0
   -4.3970    1.9647   -0.2744 C   0  0  0  0  0  0  0  0  0  0  0  0
   -4.6286    3.4263   -0.3769 C   0  0  0  0  0  0  0  0  0  0  0  0
   -5.3726    3.9625    0.6152 C   0  0  0  0  0  0  0  0  0  0  0  0
   -5.8866    3.0971    1.6959 C   0  0  0  0  0  0  0  0  0  0  0  0
   -6.3289    1.7957    1.2132 C   0  0  0  0  0  0  0  0  0  0  0  0
   -5.5829    1.1788    0.1096 C   0  0  0  0  0  0  0  0  0  0  0  0
   -5.2978   -0.2609    0.3942 C   0  0  0  0  0  0  0  0  0  0  0  0
   -5.5991   -1.1621   -0.7875 C   0  0  0  0  0  0  0  0  0  0  0  0
   -7.0456   -1.0987   -1.2103 C   0  0  0  0  0  0  0  0  0  0  0  0
   -7.8990   -1.9828   -0.3697 C   0  0  0  0  0  0  0  0  0  0  0  0
   -9.1229   -2.2751   -0.7307 C   0  0  0  0  0  0  0  0  0  0  0  0
   -9.7832   -1.8126   -1.9221 C   0  0  0  0  0  0  0  0  0  0  0  0
   -9.9238   -0.5587   -2.2870 C   0  0  0  0  0  0  0  0  0  0  0  0
   -9.4009    0.5794   -1.4879 C   0  0  0  0  0  0  0  0  0  0  0  0
  -10.3665    0.8258   -0.3514 C   0  0  0  0  0  0  0  0  0  0  0  0
  -10.0311    2.1183    0.3608 C   0  0  0  0  0  0  0  0  0  0  0  0
   -8.5737    2.3021    0.4481 C   0  0  0  0  0  0  0  0  0  0  0  0
   -7.7781    1.5493    1.1771 C   0  0  0  0  0  0  0  0  0  0  0  0
   -8.2679    0.4673    1.9632 N   0  0  0  0  0  0  0  0  0  0  0  0
   -9.5468    0.4408    2.6247 C   0  0  0  0  0  3  0  0  0  0  0  0
  -10.0839   -0.8610    2.5185 O   0  0  0  0  0  0  0  0  0  0  0  0
  -11.3026   -0.8056    1.8051 C   0  0  0  0  0  0  0  0  0  0  0  0
  -11.9918    0.4273    2.2175 C   0  0  0  0  0  0  0  0  0  0  0  0
  -12.6754    1.2247    1.4098 C   0  0  0  0  0  0  0  0  0  0  0  0
  -12.8583    1.0182   -0.0155 C   0  0  0  0  0  0  0  0  0  0  0  0
  -11.7634    0.8258   -0.8538 C   0  0  0  0  0  0  0  0  0  0  0  0
  -11.9695    0.6335   -2.1995 C   0  0  0  0  0  0  0  0  0  0  0  0
  -13.2053    0.6203   -2.7726 C   0  0  0  0  0  0  0  0  0  0  0  0
  -14.2961    0.8112   -1.9454 C   0  0  0  0  0  0  0  0  0  0  0  0
  -14.1169    1.0087   -0.5745 C   0  0  0  0  0  0  0  0  0  0  0  0
  -15.6233    1.2515    0.3671 S   0  0  0  0  0  0  0  0  0  0  0  0
  -16.2093   -0.3563    0.9347 C   0  0  0  0  0  3  0  0  0  0  0  0
  -15.3434   -1.4713    0.5157 C   0  0  0  0  0  0  0  0  0  0  0  0
  -15.6723   -2.3895   -0.3807 C   0  0  0  0  0  0  0  0  0  0  0  0
  -14.4838   -3.6769   -0.7660 S   0  0  0  0  0  0  0  0  0  0  0  0
  -14.0790   -4.8210    0.3545 C   0  0  0  0  0  0  0  0  0  0  0  0
  -13.1449   -5.8242    0.0379 N   0  0  0  0  0  0  0  0  0  0  0  0
  1  2  1  0
  2  3  1  0
  3  4  2  0
  4  5  1  0
  5  6  2  0
  6  7  1  0
  7  8  2  0
  8  9  1  0
  9 10  1  0
 10 11  1  0
 11 12  1  0
 12 13  1  0
 13 14  1  0
 12 15  1  0
 15 16  1  0
 16 17  1  0
 17 18  1  0
 18 19  1  0
 17 20  2  3
 20 21  1  0
 21 22  1  0
 22 23  1  0
 22 24  1  0
 24 25  1  0
 25 26  1  0
 26 27  2  3
 27 28  1  0
 28 29  1  0
 29 30  1  0
 30 31  2  3
 31 32  1  0
 32 33  2  3
 33 34  1  0
 34 35  2  3
 35 36  1  0
 36 37  1  0
 37 38  2  3
 38 39  1  0
 39 40  1  0
 40 41  1  1
 41 42  1  0
 42 43  1  0
 43 44  2  3
 44 45  1  0
 45 46  2  3
 46 47  1  0
 47 48  2  3
 48 49  1  0
 49 50  1  0
 50 51  1  0
 51 52  2  3
 52 53  1  0
 53 54  2  0
 54 55  1  0
 55 56  1  0
 56 57  1  0
 57 58  1  0
 58 59  1  0
 59 60  1  0
 60 61  1  0
 61 62  2  3
 62 63  1  0
 63 64  2  3
 64 65  1  0
 65 66  1  0
 66 67  1  0
 67 68  1  0
 68 69  2  3
 69 70  1  0
 70 71  1  0
 71 72  1  0
 72 73  1  0
 73 74  1  0
 74 75  2  3
 75 76  1  0
 76 77  2  0
 77 78  1  0
 78 79  2  0
 79 80  1  0
 80 81  2  0
 81 82  1  0
 82 83  1  0
 83 84  1  0
 84 85  2  3
 85 86  1  0
 86 87  2  3
 87 88  1  0
  8  3  1  0
 40 27  1  0
 57 52  1  0
 69 56  1  0
 77 66  1  0
 81 76  1  0
M  RAD  3  44   2  71   2  83   2
M  END
$$$$
