
     RDKit          3D

 69 77  0  0  0  0  0  0  0  0999 V2000
    1.2780   -3.3326    0.1110 C   0  0  0  0  0  0  0  0  0  0  0  0
    2.0921   -4.5420   -0.1976 C   0  0  0  0  0  3  0  0  0  0  0  0
    1.4165   -5.4503   -1.1906 C   0  0  0  0  0  0  0  0  0  0  0  0
   -0.0803   -5.2475   -1.2328 C   0  0  2  0  0  0  0  0  0  0  0  0
   -0.6394   -6.2311   -2.1989 C   0  0  0  0  0  0  0  0  0  0  0  0
    0.0666   -6.7592   -3.0312 O   0  0  0  0  0  0  0  0  0  0  0  0
   -0.4878   -3.8602   -1.6080 C   0  0  0  0  0  0  0  0  0  0  0  0
   -1.0176   -3.1551   -0.5009 O   0  0  0  0  0  0  0  0  0  0  0  0
   -0.1467   -3.3492    0.5390 C   0  0  2  0  0  0  0  0  0  0  0  0
   -0.4122   -2.5854    1.7763 C   0  0  0  0  0  0  0  0  0  0  0  0
   -1.7984   -2.0964    1.9586 C   0  0  0  0  0  0  0  0  0  0  0  0
   -2.8121   -2.7624    1.0957 C   0  0  0  0  0  0  0  0  0  0  0  0
   -3.3701   -3.9467    1.8221 C   0  0  0  0  0  0  0  0  0  0  0  0
   -3.9192   -1.7958    0.6421 C   0  0  1  0  0  0  0  0  0  0  0  0
   -5.1146   -2.1463    1.5371 C   0  0  0  0  0  0  0  0  0  0  0  0
   -4.5172   -1.7564    2.8665 C   0  0  0  0  0  0  0  0  0  0  0  0
   -3.6388   -0.7864    2.6985 C   0  0  0  0  0  0  0  0  0  0  0  0
   -3.5766   -0.4524    1.2635 C   0  0  0  0  0  0  0  0  0  0  0  0
   -4.6028    0.6065    0.9740 C   0  0  0  0  0  0  0  0  0  0  0  0
   -4.1613    1.8873    1.6168 C   0  0  0  0  0  3  0  0  0  0  0  0
   -4.8466    2.2208    3.2209 S   0  0  0  0  0  0  0  0  0  0  0  0
   -6.0568    1.0479    3.8126 C   0  0  0  0  0  0  0  0  0  0  0  0
   -6.5148    1.4847    5.1574 C   0  0  0  0  0  0  0  0  0  0  0  0
   -7.3441    0.8627    5.7936 O   0  0  0  0  0  0  0  0  0  0  0  0
   -4.1877   -1.7945   -0.9028 S   0  0  0  0  0  0  0  0  0  0  0  0
   -5.9474   -2.8174   -1.4026 C   0  0  0  0  0  0  0  0  0  0  0  0
   -5.6276   -2.4964   -2.8671 C   0  0  0  0  0  3  0  0  0  0  0  0
   -5.4362   -0.9967   -2.9382 C   0  0  0  0  0  0  0  0  0  0  0  0
   -4.2596   -0.7581   -1.9744 C   0  0  1  0  0  0  0  0  0  0  0  0
   -4.1272    0.7463   -1.8706 C   0  0  0  0  0  0  0  0  0  0  0  0
   -3.2667    1.1740   -0.8942 O   0  0  0  0  0  0  0  0  0  0  0  0
   -2.2113    0.3421   -0.6165 C   0  0  0  0  0  0  0  0  0  0  0  0
   -2.1953   -0.0494    0.8154 C   0  0  1  0  0  0  0  0  0  0  0  0
   -1.4951    0.8668    1.7423 C   0  0  0  0  0  3  0  0  0  0  0  0
   -0.1236    1.1613    1.2049 C   0  0  0  0  0  3  0  0  0  0  0  0
   -0.2033    1.5813   -0.2559 C   0  0  0  0  0  3  0  0  0  0  0  0
   -0.4699    3.0738   -0.3237 C   0  0  0  0  0  3  0  0  0  0  0  0
   -0.1583    3.6302   -1.6934 C   0  0  0  0  0  2  0  0  0  0  0  0
   -0.5254    2.5522   -2.7128 C   0  0  0  0  0  0  0  0  0  0  0  0
   -1.3630    3.1254   -3.8133 C   0  0  0  0  0  0  0  0  0  0  0  0
   -2.5963    3.4900   -3.5219 C   0  0  0  0  0  0  0  0  0  0  0  0
   -3.4849    4.0707   -4.5798 C   0  0  0  0  0  0  0  0  0  0  0  0
   -4.8122    3.3075   -4.5845 C   0  0  0  0  0  3  0  0  0  0  0  0
   -4.9795    2.4799   -3.3531 C   0  0  0  0  0  0  0  0  0  0  0  0
   -3.9137    1.4031   -3.2126 C   0  0  0  0  0  3  0  0  0  0  0  0
    0.8410    0.0017    1.3752 C   0  0  0  0  0  0  0  0  0  0  0  0
    1.6729   -0.2049    0.1576 C   0  0  0  0  0  0  0  0  0  0  0  0
    2.2471   -1.9871   -0.1090 Si  0  0  0  0  0  4  0  0  0  0  0  0
    4.1052   -1.7265    0.1838 C   0  0  0  0  0  3  0  0  0  0  0  0
    3.9474   -0.4497    1.0238 C   0  0  0  0  0  0  0  0  0  0  0  0
    3.0255    0.4509    0.2655 C   0  0  0  0  0  0  0  0  0  0  0  0
    2.9570    1.7635    0.9954 C   0  0  0  0  0  0  0  0  0  0  0  0
    3.3427    1.5750    2.4687 C   0  0  0  0  0  3  0  0  0  0  0  0
    4.7560    2.0897    2.6297 C   0  0  0  0  0  3  0  0  0  0  0  0
    4.6787    3.4240    3.3462 C   0  0  0  0  0  2  0  0  0  0  0  0
    5.6440    1.1175    3.3597 C   0  0  0  0  0  0  0  0  0  0  0  0
    7.0326    1.1628    2.7846 C   0  0  0  0  0  0  0  0  0  0  0  0
    7.2268    0.2081    1.6343 C   0  0  0  0  0  3  0  0  0  0  0  0
    7.1174    0.8804    0.2964 C   0  0  2  0  0  0  0  0  0  0  0  0
    6.8043    2.3613    0.5328 C   0  0  1  0  0  0  0  0  0  0  0  0
    7.9110    2.9268    1.1543 O   0  0  0  0  0  0  0  0  0  0  0  0
    6.9340    3.0284   -1.2185 S   0  0  0  0  0  0  0  0  0  0  0  0
    5.4771    2.1982   -1.9462 C   0  0  0  0  0  3  0  0  0  0  0  0
    8.3402    3.1387   -1.9276 C   0  0  0  0  0  3  0  0  0  0  0  0
    9.0859    4.4621   -1.7296 C   0  0  0  0  0  2  0  0  0  0  0  0
    6.0652    0.2475   -0.5940 C   0  0  0  0  0  0  0  0  0  0  0  0
    5.0110    1.2688   -0.8768 C   0  0  2  0  0  0  0  0  0  0  0  0
    3.6461    0.6996   -1.0963 C   0  0  0  0  0  0  0  0  0  0  0  0
    3.7196   -0.5837   -1.8808 C   0  0  0  0  0  2  0  0  0  0  0  0
  1  2  1  0
  2  3  1  0
  3  4  1  0
  4  5  1  6
  5  6  2  0
  4  7  1  0
  7  8  1  0
  8  9  1  0
  9 10  1  1
 10 11  1  0
 11 12  1  0
 12 13  1  0
 12 14  1  0
 14 15  1  1
 15 16  1  0
 16 17  2  0
 17 18  1  0
 18 19  1  0
 19 20  1  0
 20 21  1  0
 21 22  1  0
 22 23  1  0
 23 24  2  0
 14 25  1  0
 25 26  1  0
 26 27  1  0
 27 28  1  0
 29 28  1  1
 29 30  1  0
 30 31  1  0
 31 32  1  0
 33 32  1  6
 33 34  1  0
 34 35  1  0
 35 36  1  0
 36 37  1  0
 37 38  1  0
 38 39  1  0
 39 40  1  0
 40 41  2  3
 41 42  1  0
 42 43  1  0
 43 44  1  0
 44 45  1  0
 35 46  1  0
 46 47  1  0
 47 48  1  0
 48 49  1  0
 49 50  1  0
 50 51  1  0
 51 52  1  0
 52 53  1  0
 53 54  1  0
 54 55  1  0
 54 56  1  0
 56 57  1  0
 57 58  1  0
 59 58  1  1
 59 60  1  0
 60 61  1  1
 60 62  1  0
 62 63  1  0
 62 64  1  0
 64 65  1  0
 59 66  1  0
 66 67  1  0
 67 68  1  0
 68 69  1  0
  9  1  1  0
  1 48  2  3
 18 14  1  0
 33 18  1  0
 29 25  1  0
 45 30  1  0
 51 47  1  0
 68 51  1  0
 67 63  1  6
M  RAD  8   2   2  20   2  27   2  34   2  35   2  36   2  37   2  38   3
M  RAD  8  43   2  45   2  49   2  53   2  54   2  55   3  58   2  63   2
M  RAD  3  64   2  65   3  69   3
M  END
$$$$
