
     RDKit          3D

 31 32  0  0  0  0  0  0  0  0999 V2000
   -4.1212   -0.7852    1.1173 N   0  0  0  0  0  4  0  0  0  0  0  0
   -5.4547   -0.8817    0.7612 O   0  0  0  0  0  0  0  0  0  0  0  0
   -6.4802   -1.7133    1.2684 C   0  0  0  0  0  0  0  0  0  0  0  0
   -7.0917   -1.2070    2.5271 C   0  0  0  0  0  0  0  0  0  0  0  0
   -6.1924   -0.4007    3.3983 C   0  0  0  0  0  0  0  0  0  0  0  0
   -5.2440   -1.2731    4.2325 C   0  0  0  0  0  0  0  0  0  0  0  0
   -3.9386   -1.3013    3.5514 N   0  0  0  0  0  0  0  0  0  0  0  0
   -3.4881   -0.9525    2.2457 C   0  0  0  0  0  0  0  0  0  0  0  0
   -2.0331   -0.7235    2.0556 C   0  0  0  0  0  3  0  0  0  0  0  0
   -2.0253    0.0575    0.7664 C   0  0  2  0  0  0  0  0  0  0  0  0
   -3.2133   -0.4401    0.1176 N   0  0  0  0  0  0  0  0  0  0  0  0
   -3.3858   -0.5428   -1.3071 C   0  0  0  0  0  0  0  0  0  0  0  0
   -3.2180    1.1493   -2.0064 S   0  0  0  0  0  0  0  0  0  0  0  0
   -3.8353    2.4348   -1.2144 C   0  0  0  0  0  0  0  0  0  0  0  0
   -4.2997    3.3368   -0.3951 C   0  0  0  0  0  0  0  0  0  0  0  0
   -0.8536   -0.2613   -0.0833 C   0  0  0  0  0  0  0  0  0  0  0  0
   -0.4105    0.5813   -0.9918 C   0  0  0  0  0  0  0  0  0  0  0  0
    0.7526    0.2755   -1.8418 C   0  0  0  0  0  0  0  0  0  0  0  0
    1.1953    1.0733   -2.7226 N   0  0  0  0  0  0  0  0  0  0  0  0
    2.3247    0.7898   -3.5562 C   0  0  0  0  0  0  0  0  0  0  0  0
    3.3393    0.2045   -3.0307 N   0  0  0  0  0  3  0  0  0  0  0  0
    3.4117   -0.1695   -1.7124 O   0  0  0  0  0  0  0  0  0  0  0  0
    3.7876    0.8349   -0.7745 C   0  0  0  0  0  0  0  0  0  0  0  0
    3.8144    0.2540    0.6004 C   0  0  0  0  0  0  0  0  0  0  0  0
    4.9249   -0.0968    1.1793 C   0  0  0  0  0  0  0  0  0  0  0  0
    6.1269   -0.2531    1.6601 C   0  0  0  0  0  0  0  0  0  0  0  0
    7.1525   -0.6170    0.7926 O   0  0  0  0  0  0  0  0  0  0  0  0
    7.0522   -1.7117    0.0140 O   0  0  0  0  0  0  0  0  0  0  0  0
    7.2619   -1.6060   -1.3365 N   0  0  0  0  0  3  0  0  0  0  0  0
    6.9661   -0.5198   -1.9920 C   0  0  0  0  0  0  0  0  0  0  0  0
    7.1756   -0.4227   -3.3231 F   0  0  0  0  0  0  0  0  0  0  0  0
  1  2  1  0
  2  3  1  0
  3  4  1  0
  4  5  1  0
  5  6  1  0
  6  7  1  0
  7  8  1  0
  8  9  1  0
  9 10  1  0
 10 11  1  0
 11 12  1  0
 12 13  1  0
 13 14  2  0
 14 15  2  0
 10 16  1  6
 16 17  2  0
 17 18  1  0
 18 19  2  0
 19 20  1  0
 20 21  2  0
 21 22  1  0
 22 23  1  0
 23 24  1  0
 24 25  2  0
 25 26  2  0
 26 27  1  0
 27 28  1  0
 28 29  1  0
 29 30  2  3
 30 31  1  0
  1  8  2  0
 11  1  1  0
M  CHG  3   1   1  21   1  29   1
M  RAD  3   9   2  21   2  29   2
M  END
$$$$
