
     RDKit          3D

 27 30  0  0  0  0  0  0  0  0999 V2000
    0.6286   -0.9515    3.8313 O   0  0  0  0  0  0  0  0  0  0  0  0
    0.4153   -0.6333    2.6326 C   0  0  0  0  0  0  0  0  0  0  0  0
    1.4185    0.3229    2.1857 N   0  0  0  0  0  0  0  0  0  0  0  0
    1.9088    0.5874    0.8657 C   0  0  0  0  0  0  0  0  0  0  0  0
    2.9738    1.4344    0.9345 C   0  0  0  0  0  0  0  0  0  0  0  0
    3.6541    1.8252   -0.2338 C   0  0  0  0  0  0  0  0  0  0  0  0
    4.9868    2.9506   -0.1473 Cl  0  0  0  0  0  0  0  0  0  0  0  0
    3.2278    1.3280   -1.4252 C   0  0  0  0  0  0  0  0  0  0  0  0
    2.1404    0.4557   -1.5023 C   0  0  0  0  0  0  0  0  0  0  0  0
    1.6713   -0.1840   -3.0279 Cl  0  0  0  0  0  0  0  0  0  0  0  0
    1.4653    0.0848   -0.3672 C   0  0  0  0  0  0  0  0  0  0  0  0
   -0.7284   -1.2288    2.0165 N   0  0  0  0  0  0  0  0  0  0  0  0
   -1.2109   -1.6054    0.7924 C   0  0  0  0  0  0  0  0  0  0  0  0
   -2.3143   -2.5047    0.6734 C   0  0  0  0  0  0  0  0  0  0  0  0
   -2.4333   -2.9585   -0.7641 C   0  0  0  0  0  0  0  0  0  0  0  0
   -1.0505   -3.9349   -1.2936 S   0  0  0  0  0  0  0  0  0  0  0  0
    0.3160   -3.0277   -1.9462 C   0  0  0  0  0  0  0  0  0  0  0  0
    0.6519   -1.6924   -1.8880 C   0  0  0  0  0  0  0  0  0  0  0  0
    0.4017   -0.7598   -0.7860 C   0  0  0  0  0  0  0  0  0  0  0  0
   -0.9923   -0.6173   -0.4014 C   0  0  0  0  0  0  0  0  0  0  0  0
   -1.5535    0.6676    0.0428 C   0  0  0  0  0  0  0  0  0  0  0  0
   -1.3383    1.4127    1.1415 C   0  0  0  0  0  0  0  0  0  0  0  0
   -2.1265    2.5238    1.4623 C   0  0  0  0  0  0  0  0  0  0  0  0
   -3.1627    2.9127    0.6869 N   0  0  0  0  0  0  0  0  0  0  0  0
   -3.3985    2.1730   -0.4225 C   0  0  0  0  0  0  0  0  0  0  0  0
   -2.6348    1.1015   -0.7470 C   0  0  0  0  0  0  0  0  0  0  0  0
   -2.9160    0.3180   -2.3133 Cl  0  0  0  0  0  0  0  0  0  0  0  0
  1  2  2  0
  2  3  1  0
  3  4  1  0
  4  5  2  0
  5  6  1  0
  6  7  1  0
  6  8  2  0
  8  9  1  0
  9 10  1  0
  9 11  2  0
  2 12  1  0
 12 13  1  0
 13 14  1  0
 14 15  1  0
 15 16  1  0
 16 17  1  0
 17 18  2  3
 18 19  1  0
 19 20  1  0
 20 21  1  0
 21 22  2  0
 22 23  1  0
 23 24  2  0
 24 25  1  0
 25 26  2  0
 26 27  1  0
 11  4  1  0
 19 11  1  0
 20 13  1  0
 26 21  1  0
M  END
$$$$
