
     RDKit          3D

  9  9  0  0  0  0  0  0  0  0999 V2000
    1.6279   -0.1824   -0.0117 C   0  0  0  0  0  0  0  0  0  0  0  0
    0.9369   -1.2416    0.5975 O   0  0  0  0  0  0  0  0  0  0  0  0
    0.1843   -1.8411   -0.4287 C   0  0  0  0  0  3  0  0  0  0  0  0
   -0.9927   -1.1388   -0.6263 O   0  0  0  0  0  0  0  0  0  0  0  0
   -0.9429    0.0494    0.1262 C   0  0  2  0  0  0  0  0  0  0  0  0
   -2.3139    0.2561    0.7080 C   0  0  0  0  0  0  0  0  0  0  0  0
   -0.5860    1.2323   -0.7426 C   0  0  0  0  0  0  0  0  0  0  0  0
    0.7255    1.8477   -0.2750 C   0  0  0  0  0  3  0  0  0  0  0  0
    1.3609    1.0184    0.6526 O   0  0  0  0  0  0  0  0  0  0  0  0
  1  2  1  0
  2  3  1  0
  3  4  1  0
  4  5  1  0
  5  6  1  6
  5  7  1  0
  7  8  1  0
  8  9  1  0
  9  1  1  0
M  RAD  2   3   2   8   2
M  END
$$$$
