
     RDKit          3D

 38 38  0  0  0  0  0  0  0  0999 V2000
    9.2423    3.5322   -0.1823 C   0  0  0  0  0  0  0  0  0  0  0  0
    9.2272    2.0352   -0.0332 C   0  0  0  0  0  0  0  0  0  0  0  0
   10.3799    1.4774   -0.8459 C   0  0  0  0  0  0  0  0  0  0  0  0
    7.8989    1.4796   -0.5129 C   0  0  0  0  0  0  0  0  0  0  0  0
    7.8902   -0.0257   -0.3603 C   0  0  0  0  0  0  0  0  0  0  0  0
    6.5354   -0.5334   -0.8556 C   0  0  0  0  0  0  0  0  0  0  0  0
    5.4629    0.0965   -0.0187 C   0  0  1  0  0  0  0  0  0  0  0  0
    5.5471    1.5930   -0.1651 C   0  0  0  0  0  0  0  0  0  0  0  0
    4.1205   -0.4023   -0.5271 C   0  0  0  0  0  3  0  0  0  0  0  0
    3.9996   -1.8880   -0.4331 C   0  0  0  0  0  0  0  0  0  0  0  0
    2.6449   -2.3040   -0.9545 C   0  0  0  0  0  0  0  0  0  0  0  0
    1.6041   -1.6247   -0.0923 C   0  0  1  0  0  0  0  0  0  0  0  0
    1.7483   -0.1204   -0.1677 C   0  0  0  0  0  0  0  0  0  0  0  0
    0.1983   -2.0027   -0.5115 C   0  0  0  0  0  0  0  0  0  0  0  0
   -0.7563   -1.2720    0.4109 C   0  0  0  0  0  0  0  0  0  0  0  0
   -0.5646    0.1992    0.2952 C   0  0  0  0  0  3  0  0  0  0  0  0
   -0.5122   -1.7996    1.8100 C   0  0  0  0  0  0  0  0  0  0  0  0
   -0.5584   -3.3135    1.7641 C   0  0  0  0  0  0  0  0  0  0  0  0
   -1.6263   -3.7433    0.8083 C   0  0  0  0  0  0  0  0  0  0  0  0
   -1.4700   -5.1604    0.3291 C   0  0  0  0  0  0  0  0  0  0  0  0
   -3.0161   -3.4419    1.2941 C   0  0  0  0  0  0  0  0  0  0  0  0
   -3.8387   -2.9813    0.1145 C   0  0  0  0  0  0  0  0  0  0  0  0
   -5.1831   -2.4600    0.5592 C   0  0  0  0  0  0  0  0  0  0  0  0
   -5.0634   -1.7130    1.7319 O   0  0  0  0  0  0  0  0  0  0  0  0
   -5.7863   -1.6324   -0.5422 C   0  0  0  0  0  0  0  0  0  0  0  0
   -4.8039   -1.2873   -1.4388 O   0  0  0  0  0  0  0  0  0  0  0  0
   -3.7055   -0.6654   -0.8139 C   0  0  0  0  0  0  0  0  0  0  0  0
   -3.2176    0.3998   -1.7461 C   0  0  0  0  0  0  0  0  0  0  0  0
   -2.2665    1.3678   -1.1286 C   0  0  0  0  0  3  0  0  0  0  0  0
   -1.1015    1.7032   -2.0054 C   0  0  0  0  0  0  0  0  0  0  0  0
   -1.8019    1.0064    0.2374 C   0  0  0  0  0  0  0  0  0  0  0  0
   -2.8691    0.6394    1.1952 C   0  0  0  0  0  0  0  0  0  0  0  0
   -4.0477    1.5654    0.9912 C   0  0  0  0  0  0  0  0  0  0  0  0
   -3.6698    3.0116    1.2187 C   0  0  0  0  0  0  0  0  0  0  0  0
   -4.8822    3.8687    0.9999 C   0  0  0  0  0  0  0  0  0  0  0  0
   -5.3488    3.6733   -0.3875 C   0  0  0  0  0  0  0  0  0  0  0  0
   -5.4071    4.6883   -1.2201 C   0  0  0  0  0  0  0  0  0  0  0  0
   -5.0024    6.0342   -0.7628 C   0  0  0  0  0  1  0  0  0  0  0  0
  1  2  1  0
  2  3  1  0
  2  4  1  0
  4  5  1  0
  5  6  1  0
  6  7  1  0
  7  8  1  6
  7  9  1  0
  9 10  1  0
 10 11  1  0
 11 12  1  0
 12 13  1  6
 12 14  1  0
 14 15  1  0
 15 16  1  0
 15 17  1  0
 17 18  1  0
 18 19  1  0
 19 20  1  0
 19 21  1  0
 21 22  1  0
 22 23  1  0
 23 24  1  0
 23 25  1  0
 25 26  1  0
 26 27  1  0
 27 28  1  0
 28 29  1  0
 29 30  1  0
 29 31  1  0
 31 32  1  0
 32 33  1  0
 33 34  1  0
 34 35  1  0
 35 36  1  0
 36 37  2  3
 37 38  1  0
 31 16  1  0
M  RAD  4   9   2  16   2  29   2  38   2
M  END
$$$$
