
     RDKit          3D

 26 27  0  0  0  0  0  0  0  0999 V2000
    7.6779    1.0071   -0.6999 N   0  0  0  0  0  0  0  0  0  0  0  0
    7.7495    0.9283    0.6121 C   0  0  0  0  0  0  0  0  0  0  0  0
    6.8401    0.2244    1.3695 N   0  0  0  0  0  0  0  0  0  0  0  0
    7.0826   -1.0511    1.9912 C   0  0  0  0  0  0  0  0  0  0  0  0
    5.5080    0.7451    1.5055 N   0  0  0  0  0  0  0  0  0  0  0  0
    5.1663    0.9338    0.0607 C   0  0  0  0  0  0  0  0  0  0  0  0
    4.0063    0.0400   -0.0947 N   0  0  0  0  0  0  0  0  0  0  0  0
    3.9181   -0.6463   -1.3996 C   0  0  0  0  0  0  0  0  0  0  0  0
    3.0667   -0.1374    0.8716 C   0  0  0  0  0  0  0  0  0  0  0  0
    1.7618   -0.1316    0.6724 C   0  0  0  0  0  0  0  0  0  0  0  0
    1.0574    0.0591   -0.5867 C   0  0  0  0  0  0  0  0  0  0  0  0
   -0.1897   -0.0275   -0.3222 C   0  0  0  0  0  0  0  0  0  0  0  0
   -0.4699   -0.2799    1.1210 C   0  0  0  0  0  0  0  0  0  0  0  0
    0.7309   -0.3347    1.6827 C   0  0  0  0  0  0  0  0  0  0  0  0
   -1.7439   -0.3642    1.6853 N   0  0  0  0  0  0  0  0  0  0  0  0
   -2.8411   -0.4254    1.1512 C   0  0  0  0  0  0  0  0  0  0  0  0
   -3.2221   -0.4287   -0.1576 N   0  0  0  0  0  0  0  0  0  0  0  0
   -2.6916   -1.3252   -1.1946 C   0  0  0  0  0  0  0  0  0  0  0  0
   -4.2191    0.4897   -0.5967 C   0  0  0  0  0  0  0  0  0  0  0  0
   -3.9787    1.8244   -0.6054 C   0  0  0  0  0  0  0  0  0  0  0  0
   -4.9280    2.7690   -1.0339 C   0  0  0  0  0  0  0  0  0  0  0  0
   -6.1497    2.2479   -1.4477 C   0  0  0  0  0  0  0  0  0  0  0  0
   -6.3745    0.8689   -1.4254 C   0  0  0  0  0  0  0  0  0  0  0  0
   -5.4439   -0.0207   -1.0154 C   0  0  0  0  0  0  0  0  0  0  0  0
   -5.6188   -1.4336   -0.9349 N   0  0  0  0  0  3  0  0  0  0  0  0
   -6.6945   -2.0000   -1.2084 N   0  0  0  0  0  2  0  0  0  0  0  0
  1  2  2  0
  2  3  1  0
  3  4  1  0
  3  5  1  0
  5  6  1  0
  6  7  1  0
  7  8  1  0
  7  9  1  0
  9 10  2  3
 10 11  1  0
 11 12  2  0
 12 13  1  0
 13 14  2  0
 13 15  1  0
 15 16  2  3
 16 17  1  0
 17 18  1  0
 17 19  1  0
 19 20  2  0
 20 21  1  0
 21 22  2  0
 22 23  1  0
 23 24  2  0
 24 25  1  0
 25 26  2  0
 14 10  1  0
 24 19  1  0
M  CHG  2  25   1  26  -1
M  RAD  1  25   2
M  END
$$$$
