
     RDKit          3D

 19 19  0  0  0  0  0  0  0  0999 V2000
   -0.3034   -0.2851   -1.0993 C   0  0  0  0  0  0  0  0  0  0  0  0
    0.9888   -0.4165   -0.4268 N   0  0  0  0  0  0  0  0  0  0  0  0
    1.2019    0.1573    0.8287 N   0  0  0  0  0  0  0  0  0  0  0  0
    0.2892    1.2372    1.2077 C   0  0  0  0  0  0  0  0  0  0  0  0
   -1.0705    0.6887    0.9628 C   0  0  0  0  0  0  0  0  0  0  0  0
   -1.3675   -0.0305   -0.1183 C   0  0  0  0  0  0  0  0  0  0  0  0
   -2.6754   -0.4822   -0.2232 O   0  0  0  0  0  0  0  0  0  0  0  0
   -3.6768    0.1949   -0.8531 N   0  0  0  0  0  0  0  0  0  0  0  0
   -3.1493    0.8370   -1.9302 O   0  0  0  0  0  0  0  0  0  0  0  0
   -4.3507    1.0937   -0.0320 N   0  0  0  0  0  0  0  0  0  0  0  0
   -5.0594    0.5872    1.0872 C   0  0  0  0  0  0  0  0  0  0  0  0
   -5.0467   -0.6508    1.2853 O   0  0  0  0  0  0  0  0  0  0  0  0
    2.2052   -0.2237    1.7304 C   0  0  0  0  0  0  0  0  0  0  0  0
    3.0480   -1.1219    1.5575 O   0  0  0  0  0  0  0  0  0  0  0  0
    2.0538   -1.1132   -0.9955 N   0  0  0  0  0  0  0  0  0  0  0  0
    3.1584   -0.5553   -1.2076 N   0  0  0  0  0  3  0  0  0  0  0  0
    3.4708    0.7641   -0.9257 N   0  0  0  0  0  0  0  0  0  0  0  0
    4.6242    1.1698   -0.2454 N   0  0  0  0  0  0  0  0  0  0  0  0
    5.6593    0.2938   -0.6024 N   0  0  0  0  0  0  0  0  0  0  0  0
  1  2  1  0
  2  3  1  0
  3  4  1  0
  4  5  1  0
  5  6  2  0
  6  7  1  0
  7  8  1  0
  8  9  1  0
  8 10  1  0
 10 11  1  0
 11 12  2  0
  3 13  1  0
 13 14  2  0
  2 15  1  0
 15 16  2  3
 16 17  1  0
 17 18  1  0
 18 19  1  0
  6  1  1  0
M  CHG  1  16   1
M  RAD  1  16   2
M  END
$$$$
