
     RDKit          3D

 11 12  0  0  0  0  0  0  0  0999 V2000
    0.0619   -0.9061    0.0870 C   0  0  0  0  0  0  0  0  0  0  0  0
    1.0442   -1.1383   -0.6930 O   0  0  0  0  0  0  0  0  0  0  0  0
    2.0600   -0.4717   -1.4120 C   0  0  0  0  0  0  0  0  0  0  0  0
    2.1501    0.8073   -1.7231 C   0  0  0  0  0  0  0  0  0  0  0  0
    1.1688    1.8442   -1.3687 C   0  0  0  0  0  0  0  0  0  0  0  0
    0.1020    1.6621   -0.5681 C   0  0  0  0  0  0  0  0  0  0  0  0
   -0.4144    0.6308    0.1211 C   0  0  0  0  0  0  0  0  0  0  0  0
   -1.8180    0.9515    1.2549 S   0  0  0  0  0  0  0  0  0  0  0  0
   -2.1530   -1.2100    2.0559 C   0  0  0  0  0  0  0  0  0  0  0  0
   -1.3904   -1.1243    1.3811 C   0  0  0  0  0  0  0  0  0  0  0  0
   -0.8111   -1.0455    0.8649 C   0  0  0  0  0  0  0  0  0  0  0  0
  1  2  1  0
  2  3  1  0
  3  4  2  0
  4  5  1  0
  5  6  2  0
  6  7  1  0
  7  8  1  0
  8  9  1  0
  9 10  1  0
 10 11  3  0
 11  1  1  0
  1  7  2  0
M  END
$$$$
