
     RDKit          3D

 29 29  0  0  0  0  0  0  0  0999 V2000
    4.1585   -0.9292   -0.9245 C   0  0  0  0  0  0  0  0  0  0  0  0
    2.7865   -1.5547   -0.7968 C   0  0  0  0  0  0  0  0  0  0  0  0
    2.3599   -2.1973   -2.0928 C   0  0  0  0  0  0  0  0  0  0  0  0
    2.8288   -2.6073    0.2836 C   0  0  0  0  0  0  0  0  0  0  0  0
    1.5267   -2.5813    1.0775 C   0  0  0  0  0  0  0  0  0  0  0  0
    0.5344   -3.5288    0.4238 C   0  0  0  0  0  0  0  0  0  0  0  0
   -0.8490   -2.8944    0.3231 C   0  0  1  0  0  0  0  0  0  0  0  0
   -1.1615   -2.6945   -1.1362 C   0  0  0  0  0  0  0  0  0  0  0  0
   -1.8126   -3.8277    0.9920 C   0  0  0  0  0  3  0  0  0  0  0  0
   -3.2274   -3.3425    0.9976 C   0  0  0  0  0  0  0  0  0  0  0  0
   -3.4918   -2.2167    0.0442 C   0  0  0  0  0  0  0  0  0  0  0  0
   -3.4348   -0.9253    0.8170 C   0  0  2  0  0  0  0  0  0  0  0  0
   -3.9298   -1.1471    2.2233 C   0  0  0  0  0  0  0  0  0  0  0  0
   -4.2942    0.1030    0.1378 C   0  0  0  0  0  0  0  0  0  0  0  0
   -3.6011    0.7380   -1.0420 C   0  0  0  0  0  0  0  0  0  0  0  0
   -4.5878    0.7755   -2.1884 C   0  0  0  0  0  2  0  0  0  0  0  0
   -3.2369    2.1589   -0.6905 C   0  0  0  0  0  0  0  0  0  0  0  0
   -3.3920    2.4536    0.7755 C   0  0  0  0  0  0  0  0  0  0  0  0
   -1.8786    2.5516   -1.2264 C   0  0  0  0  0  0  0  0  0  0  0  0
   -0.9112    2.7143   -0.0725 C   0  0  0  0  0  0  0  0  0  0  0  0
    0.0043    3.8931   -0.3935 C   0  0  0  0  0  0  0  0  0  0  0  0
    1.3114    3.6635    0.2095 C   0  0  0  0  0  0  0  0  0  0  0  0
    1.5096    3.9451    1.6240 C   0  0  0  0  0  0  0  0  0  0  0  0
    2.4159    3.1983   -0.6083 C   0  0  0  0  0  0  0  0  0  0  0  0
    3.3162    2.3548    0.0266 O   0  0  0  0  0  0  0  0  0  0  0  0
    2.9657    1.0189   -0.0596 C   0  0  0  0  0  0  0  0  0  0  0  0
    4.2424    0.2062    0.0704 C   0  0  0  0  0  0  0  0  0  0  0  0
    4.4029   -0.3880    1.4454 C   0  0  0  0  0  2  0  0  0  0  0  0
    5.4456    1.0602   -0.2396 C   0  0  0  0  0  2  0  0  0  0  0  0
  1  2  1  0
  2  3  1  0
  2  4  1  0
  4  5  1  0
  5  6  1  0
  6  7  1  0
  7  8  1  6
  7  9  1  0
  9 10  1  0
 10 11  1  0
 11 12  1  0
 12 13  1  1
 12 14  1  0
 14 15  1  0
 15 16  1  0
 15 17  1  0
 17 18  1  0
 17 19  1  0
 19 20  1  0
 20 21  1  0
 21 22  1  0
 22 23  1  0
 22 24  1  0
 24 25  1  0
 25 26  1  0
 26 27  1  0
 27 28  1  0
 27 29  1  0
 27  1  1  0
M  RAD  4   9   2  16   3  28   3  29   3
M  END
$$$$
