
     RDKit          3D

 55 57  0  0  0  0  0  0  0  0999 V2000
  -13.0763    2.5071   -0.0431 C   0  0  0  0  0  0  0  0  0  0  0  0
  -12.2379    1.4110   -0.4679 N   0  0  0  0  0  0  0  0  0  0  0  0
  -10.9778    1.9040   -1.0415 C   0  0  0  0  0  0  0  0  0  0  0  0
  -10.2419    2.6437    0.0387 C   0  0  0  0  0  0  0  0  0  0  0  0
  -10.3695    1.9572    1.3718 C   0  0  0  0  0  0  0  0  0  0  0  0
  -10.0617    0.6745    1.5723 C   0  0  0  0  0  0  0  0  0  0  0  0
   -9.5543   -0.3180    0.5978 C   0  0  0  0  0  0  0  0  0  0  0  0
   -8.9822   -1.3369    1.2195 C   0  0  0  0  0  0  0  0  0  0  0  0
   -8.9183   -1.3720    2.6648 N   0  0  0  0  0  0  0  0  0  0  0  0
   -8.3980   -2.4472    0.5550 N   0  0  0  0  0  0  0  0  0  0  0  0
   -7.6572   -2.3720   -0.6261 N   0  0  0  0  0  3  0  0  0  0  0  0
   -6.8511   -3.5912   -0.7085 C   0  0  0  0  0  0  0  0  0  0  0  0
  -10.2666    0.7391   -1.5273 N   0  0  0  0  0  0  0  0  0  0  0  0
   -9.6735   -0.1870   -0.8474 C   0  0  0  0  0  0  0  0  0  0  0  0
   -9.1200   -1.1169   -1.7723 N   0  0  0  0  0  2  0  0  0  0  0  0
   -8.0456   -0.3826   -2.4632 C   0  0  0  0  0  0  0  0  0  0  0  0
   -6.9734   -0.2874   -1.4796 N   0  0  0  0  0  0  0  0  0  0  0  0
   -6.8185   -1.2304   -0.6374 C   0  0  0  0  0  0  0  0  0  0  0  0
   -5.7286   -1.1272    0.3593 C   0  0  0  0  0  0  0  0  0  0  0  0
   -4.9848    0.0855    0.2293 N   0  0  0  0  0  0  0  0  0  0  0  0
   -4.2907    0.4085   -0.7277 N   0  0  0  0  0  0  0  0  0  0  0  0
   -4.1033   -0.3941   -1.9052 C   0  0  0  0  0  0  0  0  0  0  0  0
   -2.9405   -1.2369   -1.7802 N   0  0  0  0  0  0  0  0  0  0  0  0
   -3.1491   -2.4724   -1.5121 C   0  0  0  0  0  0  0  0  0  0  0  0
   -1.9190   -3.3380   -1.3852 C   0  0  0  0  0  0  0  0  0  0  0  0
   -1.3383   -2.9566   -0.1049 N   0  0  0  0  0  0  0  0  0  0  0  0
   -1.4301   -1.7749    0.2710 N   0  0  0  0  0  0  0  0  0  0  0  0
   -0.8535   -1.4129    1.5349 C   0  0  0  0  0  0  0  0  0  0  0  0
    0.4917   -0.9547    1.2702 N   0  0  0  0  0  0  0  0  0  0  0  0
    0.7675    0.3102    1.1201 C   0  0  0  0  0  0  0  0  0  0  0  0
   -0.3555    1.2728    1.2309 C   0  0  0  0  0  0  0  0  0  0  0  0
    0.1073    2.4043    1.9973 N   0  0  0  0  0  0  0  0  0  0  0  0
    1.0872    3.1714    1.8042 N   0  0  0  0  0  0  0  0  0  0  0  0
    2.0436    3.1265    0.7312 C   0  0  0  0  0  0  0  0  0  0  0  0
    2.7322    1.7979    0.6904 C   0  0  0  0  0  0  0  0  0  0  0  0
    4.1201    1.8158    0.4483 N   0  0  0  0  0  0  0  0  0  0  0  0
    2.1711    0.6131    0.8581 C   0  0  0  0  0  0  0  0  0  0  0  0
    3.0959   -0.5268    0.7648 C   0  0  0  0  0  0  0  0  0  0  0  0
    4.4288   -0.0828    0.5080 N   0  0  0  0  0  0  0  0  0  0  0  0
    5.3785   -0.9212    0.5489 C   0  0  0  0  0  0  0  0  0  0  0  0
    6.7690   -0.4825    0.2855 C   0  0  0  0  0  0  0  0  0  0  0  0
    7.1000    0.7561    1.0004 N   0  0  0  0  0  0  0  0  0  0  0  0
    8.4189    1.0503    0.6704 N   0  0  0  0  0  3  0  0  0  0  0  0
    9.3814    1.8131    2.0806 Br  0  0  0  0  0  0  0  0  0  0  0  0
    8.5662    1.7514   -0.5782 C   0  0  0  0  0  0  0  0  0  0  0  0
   10.0725    1.9761   -0.7630 C   0  0  0  0  0  0  0  0  0  0  0  0
   10.7675    0.6303   -0.7979 C   0  0  0  0  0  0  0  0  0  0  0  0
   12.2513    0.8600   -0.9795 C   0  0  0  0  0  0  0  0  0  0  0  0
   12.9777   -0.3955   -1.0216 N   0  0  0  0  0  0  0  0  0  0  0  0
   12.7959   -1.1193    0.1703 N   0  0  0  0  0  0  0  0  0  0  0  0
   14.3574   -0.0705   -1.0552 N   0  0  0  0  0  4  0  0  0  0  0  0
   14.5716    0.7454   -2.2230 C   0  0  0  0  0  0  0  0  0  0  0  0
   14.7408    0.5786    0.1346 N   0  0  0  0  0  0  0  0  0  0  0  0
   15.0809   -1.2759   -1.1097 N   0  0  0  0  0  0  0  0  0  0  0  0
   15.0423   -1.8201    0.1812 N   0  0  0  0  0  0  0  0  0  0  0  0
  1  2  1  0
  2  3  1  0
  3  4  1  0
  4  5  1  0
  5  6  2  0
  6  7  1  0
  7  8  2  3
  8  9  1  0
  8 10  1  0
 10 11  1  0
 11 12  1  0
  3 13  1  0
 13 14  2  0
 14 15  1  0
 15 16  1  0
 16 17  1  0
 17 18  2  3
 18 19  1  0
 19 20  1  0
 20 21  2  3
 21 22  1  0
 22 23  1  0
 23 24  2  3
 24 25  1  0
 25 26  1  0
 26 27  2  3
 27 28  1  0
 28 29  1  0
 29 30  2  3
 30 31  1  0
 31 32  1  0
 32 33  2  0
 33 34  1  0
 34 35  1  0
 35 36  1  0
 35 37  2  0
 37 38  1  0
 38 39  1  0
 39 40  2  3
 40 41  1  0
 41 42  1  0
 42 43  1  0
 43 44  1  0
 43 45  1  0
 45 46  1  0
 46 47  1  0
 47 48  1  0
 48 49  1  0
 49 50  1  0
 49 51  1  0
 51 52  1  0
 51 53  1  0
 51 54  1  0
 54 55  1  0
 14  7  1  0
 18 11  1  0
 37 30  1  0
M  CHG  4  11   1  15   1  43   1  51   1
M  RAD  3  11   2  15   3  43   2
M  END
$$$$
