
     RDKit          3D

 28 28  0  0  0  0  0  0  0  0999 V2000
    5.9566   -2.5240    0.1124 C   0  0  0  0  0  0  0  0  0  0  0  0
    5.5237   -1.4672   -0.8151 C   0  0  0  0  0  0  0  0  0  0  0  0
    4.2308   -1.2814   -1.0299 C   0  0  0  0  0  0  0  0  0  0  0  0
    3.2584   -2.0834   -0.3814 N   0  0  0  0  0  0  0  0  0  0  0  0
    2.0218   -2.4013   -1.0702 C   0  0  0  0  0  3  0  0  0  0  0  0
    1.0861   -1.2014   -1.0987 C   0  0  0  0  0  0  0  0  0  0  0  0
    0.1779   -1.1965    0.1202 C   0  0  1  0  0  0  0  0  0  0  0  0
    0.9834   -1.1315    1.3408 O   0  0  0  0  0  0  0  0  0  0  0  0
    0.1072   -0.0122    0.9030 C   0  0  0  0  0  0  0  0  0  0  0  0
    0.9812    1.1843    0.5265 C   0  0  0  0  0  0  0  0  0  0  0  0
    0.1526    2.2256    0.1185 O   0  0  0  0  0  0  0  0  0  0  0  0
    1.1609    3.5394   -0.2925 P   0  0  0  0  0  0  0  0  0  0  0  0
    1.5439    3.3790   -1.7482 O   0  0  0  0  0  0  0  0  0  0  0  0
    2.5285    3.4893    0.7013 O   0  0  0  0  0  0  0  0  0  0  0  0
    0.3777    5.0053   -0.1016 O   0  0  0  0  0  0  0  0  0  0  0  0
    1.2372    6.2039   -1.0361 P   0  0  0  0  0  0  0  0  0  0  0  0
    2.7381    6.4110   -0.7221 O   0  0  0  0  0  0  0  0  0  0  0  0
   -0.9037    0.2720    1.9593 C   0  0  0  0  0  0  0  0  0  0  0  0
   -2.3142    0.2758    1.4756 C   0  0  0  0  0  0  0  0  0  0  0  0
   -2.6692   -0.9774    0.9234 O   0  0  0  0  0  0  0  0  0  0  0  0
   -3.8861   -1.2648    0.4063 N   0  0  0  0  0  0  0  0  0  0  0  0
   -4.9144   -0.5160    0.4137 C   0  0  0  0  0  0  0  0  0  0  0  0
   -6.1055   -1.0432   -0.2026 N   0  0  0  0  0  0  0  0  0  0  0  0
   -6.3892   -2.4268   -0.0536 C   0  0  0  0  0  0  0  0  0  0  0  0
   -6.5808   -3.1506   -1.1421 C   0  0  0  0  0  0  0  0  0  0  0  0
   -6.5092   -2.5840   -2.4058 O   0  0  0  0  0  1  0  0  0  0  0  0
    3.5949   -2.6698    1.2565 S   0  0  0  0  0  0  0  0  0  0  0  0
    2.6116   -4.0539    1.6041 O   0  0  0  0  0  1  0  0  0  0  0  0
  1  2  1  0
  2  3  2  3
  3  4  1  0
  4  5  1  0
  5  6  1  0
  7  6  1  6
  7  8  1  0
  7  9  1  0
  9 10  1  0
 10 11  1  0
 11 12  1  0
 12 13  2  0
 12 14  1  0
 12 15  1  0
 15 16  1  0
 16 17  2  0
  9 18  1  0
 18 19  1  0
 19 20  1  0
 20 21  1  0
 21 22  2  0
 22 23  1  0
 23 24  1  0
 24 25  2  3
 25 26  1  0
  4 27  1  0
 27 28  1  0
  9  8  1  0
M  CHG  2  26  -1  28  -1
M  RAD  1   5   2
M  END
$$$$
