
     RDKit          3D

 44 50  0  0  0  0  0  0  0  0999 V2000
   -2.2067    0.6330   -1.0674 C   0  0  0  0  0  0  0  0  0  0  0  0
   -1.7373    1.9586   -0.5375 C   0  0  0  0  0  0  0  0  0  0  0  0
   -2.9179    2.8337   -0.0846 C   0  0  0  0  0  0  0  0  0  0  0  0
   -1.0698    2.7896   -1.6435 C   0  0  0  0  0  0  0  0  0  0  0  0
    0.3264    3.1843   -1.3240 C   0  0  0  0  0  0  0  0  0  0  0  0
    0.4916    4.1122   -0.1662 C   0  0  0  0  0  0  0  0  0  0  0  0
    1.9706    4.1809    0.1628 C   0  0  1  0  0  0  0  0  0  0  0  0
    2.2358    4.5833    1.5783 C   0  0  0  0  0  0  0  0  0  0  0  0
    2.6449    2.8391   -0.1039 C   0  0  2  0  0  0  0  0  0  0  0  0
    3.1898    2.8960   -1.5172 C   0  0  0  0  0  2  0  0  0  0  0  0
    1.6256    1.7592    0.0699 C   0  0  0  0  0  0  0  0  0  0  0  0
    2.1388    0.4196   -0.3716 C   0  0  0  0  0  0  0  0  0  0  0  0
    3.5883    0.3235   -0.0602 C   0  0  0  0  0  0  0  0  0  0  0  0
    3.5309   -0.0492    1.4212 C   0  0  0  0  0  0  0  0  0  0  0  0
    2.4871   -1.1127    1.3679 C   0  0  1  0  0  0  0  0  0  0  0  0
    2.1558   -1.7006    2.6402 C   0  0  0  0  0  0  0  0  0  0  0  0
    0.8503   -2.3480    2.8358 C   0  0  0  0  0  0  0  0  0  0  0  0
   -0.2383   -1.3069    2.9473 C   0  0  0  0  0  0  0  0  0  0  0  0
   -0.8222   -1.2426    4.1839 O   0  0  0  0  0  0  0  0  0  0  0  0
   -1.2416   -1.6622    1.8475 C   0  0  0  0  0  0  0  0  0  0  0  0
    0.3806    0.0381    2.5359 C   0  0  0  0  0  0  0  0  0  0  0  0
    1.4273   -0.7337    0.3811 C   0  0  0  0  0  0  0  0  0  0  0  0
    0.2899   -0.1477    1.0076 C   0  0  0  0  0  0  0  0  0  0  0  0
   -1.1015   -0.4510    0.9067 C   0  0  0  0  0  0  0  0  0  0  0  0
   -1.8445    0.6390    1.7298 C   0  0  0  0  0  0  0  0  0  0  0  0
   -3.2514    0.1070    1.9031 C   0  0  0  0  0  0  0  0  0  0  0  0
   -4.1269    1.0343    2.6824 C   0  0  0  0  0  0  0  0  0  0  0  0
   -3.5065    1.2232    4.0587 C   0  0  0  0  0  2  0  0  0  0  0  0
   -1.8099   -0.5605   -0.3493 C   0  0  0  0  0  0  0  0  0  0  0  0
   -3.2885   -0.1390   -0.4491 C   0  0  0  0  0  0  0  0  0  0  0  0
   -4.1166   -0.8349   -1.4954 C   0  0  0  0  0  0  0  0  0  0  0  0
   -3.2122   -1.7431   -2.3056 C   0  0  0  0  0  3  0  0  0  0  0  0
   -2.2632   -0.8831   -3.0723 C   0  0  1  0  0  0  0  0  0  0  0  0
   -2.1261    0.5080   -2.5690 C   0  0  0  0  0  0  0  0  0  0  0  0
   -1.0608   -1.4997   -3.3827 O   0  0  0  0  0  0  0  0  0  0  0  0
   -0.4614   -2.1366   -2.3285 C   0  0  0  0  0  0  0  0  0  0  0  0
    0.8832   -1.4608   -2.0046 C   0  0  0  0  0  0  0  0  0  0  0  0
    0.8803   -0.0064   -2.3293 C   0  0  0  0  0  0  0  0  0  0  0  0
    1.8029   -2.0822   -3.0820 C   0  0  0  0  0  0  0  0  0  0  0  0
    1.8202   -3.6012   -2.8991 C   0  0  0  0  0  2  0  0  0  0  0  0
    1.3223   -1.8242   -0.6148 C   0  0  0  0  0  0  0  0  0  0  0  0
    0.4120   -2.9624   -0.1238 C   0  0  0  0  0  0  0  0  0  0  0  0
    2.6780   -2.4783   -0.7868 C   0  0  0  0  0  0  0  0  0  0  0  0
    3.2708   -3.0956    0.4081 C   0  0  0  0  0  0  0  0  0  0  0  0
  1  2  1  0
  2  3  1  0
  2  4  1  0
  4  5  1  0
  5  6  1  0
  6  7  1  0
  7  8  1  1
  7  9  1  0
  9 10  1  6
  9 11  1  0
 11 12  1  0
 12 13  1  0
 13 14  1  0
 15 14  1  1
 15 16  1  0
 16 17  1  0
 17 18  1  0
 18 19  1  0
 18 20  1  0
 18 21  1  0
 15 22  1  0
 22 23  1  0
 23 24  1  0
 24 25  1  0
 25 26  1  0
 26 27  1  0
 27 28  1  0
 24 29  1  0
 29 30  1  0
 30 31  1  0
 31 32  1  0
 33 32  1  1
 33 34  1  0
 33 35  1  0
 35 36  1  0
 36 37  1  0
 37 38  1  0
 37 39  1  0
 39 40  1  0
 37 41  1  0
 41 42  1  0
 41 43  1  0
 43 44  1  0
 29  1  1  0
 30  1  1  0
 34  1  1  0
 22 12  1  0
 24 20  1  0
 23 21  1  0
 41 22  1  0
M  RAD  4  10   3  28   3  32   2  40   3
M  END
$$$$
