
     RDKit          3D

 14 14  0  0  0  0  0  0  0  0999 V2000
   -3.6680   -2.6746   -0.7705 C   0  0  0  0  0  0  0  0  0  0  0  0
   -2.4172   -2.0626   -0.6643 O   0  0  0  0  0  0  0  0  0  0  0  0
   -2.2010   -0.7204   -0.5087 C   0  0  0  0  0  0  0  0  0  0  0  0
   -3.2313    0.1860   -0.4397 C   0  0  0  0  0  0  0  0  0  0  0  0
   -2.9656    1.5246   -0.2829 C   0  0  0  0  0  0  0  0  0  0  0  0
   -1.6568    1.9683   -0.1936 C   0  0  0  0  0  0  0  0  0  0  0  0
   -0.6129    1.0751   -0.2607 C   0  0  0  0  0  0  0  0  0  0  0  0
   -0.9004   -0.2594   -0.4177 C   0  0  0  0  0  0  0  0  0  0  0  0
    0.4279   -1.4343   -0.5074 S   0  0  0  0  0  0  0  0  0  0  0  0
    1.9654   -0.5452   -0.3616 C   0  0  0  0  0  0  0  0  0  0  0  0
    2.1315    0.2565    0.6683 C   0  0  0  0  0  0  0  0  0  0  0  0
    3.3542    1.0301    0.8799 C   0  0  0  0  0  0  0  0  0  0  0  0
    4.3795    0.8749    0.0952 C   0  0  0  0  0  0  0  0  0  0  0  0
    5.3947    0.7811   -0.6077 O   0  0  0  0  0  0  0  0  0  0  0  0
  1  2  1  0
  2  3  1  0
  3  4  2  0
  4  5  1  0
  5  6  2  0
  6  7  1  0
  7  8  2  0
  8  9  1  0
  9 10  1  0
 10 11  2  3
 11 12  1  0
 12 13  2  0
 13 14  2  0
  8  3  1  0
M  END
$$$$
