
     RDKit          3D

 23 25  0  0  0  0  0  0  0  0999 V2000
   -1.9044    1.2205    2.3676 C   0  0  0  0  0  0  0  0  0  0  0  0
   -2.5142    0.2800    1.3565 C   0  0  1  0  0  0  0  0  0  0  0  0
   -3.5908    1.0198    0.5839 C   0  0  0  0  0  0  0  0  0  0  0  0
   -4.2749    0.0540   -0.3528 C   0  0  2  0  0  0  0  0  0  0  0  0
   -5.5530   -0.1754    0.1644 O   0  0  0  0  0  0  0  0  0  0  0  0
   -3.5245   -1.2714   -0.3953 C   0  0  2  0  0  0  0  0  0  0  0  0
   -3.6813   -1.9252    0.8266 O   0  0  0  0  0  0  0  0  0  0  0  0
   -2.0484   -1.0224   -0.6512 C   0  0  1  0  0  0  0  0  0  0  0  0
   -1.8807   -0.4974   -1.9241 O   0  0  0  0  0  0  0  0  0  0  0  0
   -1.4275   -0.1520    0.4046 C   0  0  1  0  0  0  0  0  0  0  0  0
   -0.6716    0.9470   -0.1071 N   0  0  0  0  0  0  0  0  0  0  0  0
    0.6419    0.6474   -0.5649 C   0  0  1  0  0  0  0  0  0  0  0  0
    1.6047    1.7447   -0.2057 C   0  0  0  0  0  0  0  0  0  0  0  0
    2.6382    2.0149   -1.2516 C   0  0  0  0  0  0  0  0  0  0  0  0
    2.9948    1.0566   -2.1799 O   0  0  0  0  0  0  0  0  0  0  0  0
    3.9300    1.6317   -1.1594 C   0  0  2  0  0  0  0  0  0  0  0  0
    4.3754    0.6363   -0.2883 O   0  0  0  0  0  0  0  0  0  0  0  0
    3.6718   -0.5560   -0.4440 C   0  0  1  0  0  0  0  0  0  0  0  0
    4.4587   -1.6750   -0.1611 O   0  0  0  0  0  0  0  0  0  0  0  0
    2.5070   -0.4967    0.5144 C   0  0  2  0  0  0  0  0  0  0  0  0
    2.6613   -1.3329    1.6042 O   0  0  0  0  0  0  0  0  0  0  0  0
    1.1938   -0.6772   -0.2002 C   0  0  1  0  0  0  0  0  0  0  0  0
    0.3937   -1.4714    0.5860 O   0  0  0  0  0  0  0  0  0  0  0  0
  2  1  1  1
  2  3  1  0
  3  4  1  0
  4  5  1  1
  4  6  1  0
  6  7  1  1
  6  8  1  0
  8  9  1  6
  8 10  1  0
 10 11  1  6
 12 11  1  1
 12 13  1  0
 13 14  1  0
 14 15  1  0
 14 16  1  0
 16 17  1  1
 17 18  1  0
 18 19  1  1
 18 20  1  0
 20 21  1  1
 20 22  1  0
 22 23  1  1
 10  2  1  0
 22 12  1  0
 16 15  1  0
M  END
$$$$
