
     RDKit          3D

 18 20  0  0  0  0  0  0  0  0999 V2000
   -2.8367    1.3546   -0.0619 C   0  0  0  0  0  0  0  0  0  0  0  0
   -2.5038    1.3130    1.3520 O   0  0  0  0  0  0  0  0  0  0  0  0
   -1.6902    0.2578    1.6957 C   0  0  0  0  0  0  0  0  0  0  0  0
   -2.0809   -0.9518    1.3636 C   0  0  0  0  0  0  0  0  0  0  0  0
   -2.4193   -1.0333   -0.1020 C   0  0  0  0  0  0  0  0  0  0  0  0
   -2.2406    0.1513   -0.7198 C   0  0  0  0  0  0  0  0  0  0  0  0
   -1.4827    0.2998   -1.9531 C   0  0  0  0  0  0  0  0  0  0  0  0
    0.0316    0.3579   -1.6612 C   0  0  1  0  0  0  0  0  0  0  0  0
    0.3332    1.8227   -1.3865 C   0  0  0  0  0  0  0  0  0  0  0  0
    0.3321   -0.4579   -0.4079 C   0  0  0  0  0  0  0  0  0  0  0  0
    0.9506   -1.7400   -0.8444 C   0  0  0  0  0  0  0  0  0  0  0  0
    2.2625   -1.7964   -1.0517 C   0  0  0  0  0  0  0  0  0  0  0  0
    3.0398   -0.5422   -0.8269 C   0  0  0  0  0  0  0  0  0  0  0  0
    4.4490   -0.9905   -0.4152 C   0  0  0  0  0  0  0  0  0  0  0  0
    2.4935    0.2125    0.3427 C   0  0  0  0  0  0  0  0  0  0  0  0
    1.1623    0.2648    0.5650 C   0  0  0  0  0  0  0  0  0  0  0  0
    0.6878    1.0229    1.7404 C   0  0  0  0  0  0  0  0  0  0  0  0
   -0.4883    0.4548    2.3712 N   0  0  0  0  0  0  0  0  0  0  0  0
  1  2  1  0
  2  3  1  0
  3  4  2  0
  4  5  1  0
  5  6  2  0
  6  7  1  0
  7  8  1  0
  8  9  1  1
  8 10  1  0
 10 11  1  0
 11 12  2  0
 12 13  1  0
 13 14  1  0
 13 15  1  0
 15 16  2  0
 16 17  1  0
 17 18  1  0
  6  1  1  0
 18  3  1  0
 16 10  1  0
M  END
$$$$
