
     RDKit          2D

 34 40  0  0  0  0  0  0  0  0999 V2000
  -14.1582   -0.8096    0.0000 C   0  0  0  0  0  0  0  0  0  0  0  0
  -14.3038    0.6833    0.0000 N   0  0  0  0  0  0  0  0  0  0  0  0
  -13.3511    1.8420    0.0000 C   0  0  0  0  0  3  0  0  0  0  0  0
  -11.8582    1.9876    0.0000 C   0  0  0  0  0  0  0  0  0  0  0  0
  -10.6996    1.0349    0.0000 C   0  0  0  0  0  3  0  0  0  0  0  0
  -10.5539   -0.4580    0.0000 O   0  0  0  0  0  0  0  0  0  0  0  0
  -11.5066   -1.6166    0.0000 C   0  0  0  0  0  0  0  0  0  0  0  0
  -11.7523   -3.0963    0.0000 C   0  0  0  0  0  0  0  0  0  0  0  0
  -12.9995   -1.7622    0.0000 C   0  0  0  0  0  0  0  0  0  0  0  0
  -13.4363   -3.1972    0.0000 O   0  0  0  0  0  0  0  0  0  0  0  0
  -14.8974   -3.5365    0.0000 C   0  0  0  0  0  0  0  0  0  0  0  0
  -10.1409   -2.2369    0.0000 N   0  0  0  0  0  0  0  0  0  0  0  0
   -9.9953   -3.7299    0.0000 C   0  0  0  0  0  0  0  0  0  0  0  0
   -8.6296   -4.3502    0.0000 C   0  0  0  0  0  0  0  0  0  0  0  0
   -7.4781   -3.3889    0.0000 C   0  0  0  0  0  0  0  0  0  0  0  0
   -6.0086   -3.6898    0.0000 C   0  0  0  0  0  0  0  0  0  0  0  0
   -5.7739   -2.2082    0.0000 C   0  0  0  0  0  0  0  0  0  0  0  0
   -4.7133   -1.1476    0.0000 C   0  0  0  0  0  0  0  0  0  0  0  0
   -8.5959   -5.8498    0.0000 C   0  0  0  0  0  0  0  0  0  0  0  0
   -7.4025   -6.7585    0.0000 C   0  0  0  0  0  0  0  0  0  0  0  0
   -5.9479   -6.3920    0.0000 C   0  0  0  0  0  0  0  0  0  0  0  0
   -5.3276   -5.0263    0.0000 C   0  0  0  0  0  0  0  0  0  0  0  0
   -3.9911   -5.7073    0.0000 C   0  0  0  0  0  0  0  0  0  0  0  0
   -2.5095   -5.4726    0.0000 C   0  0  0  0  0  0  0  0  0  0  0  0
   -1.4489   -4.4120    0.0000 C   0  0  0  0  0  0  0  0  0  0  0  0
   -1.2142   -2.9304    0.0000 C   0  0  0  0  0  0  0  0  0  0  0  0
   -2.5507   -3.6114    0.0000 C   0  0  0  0  0  0  0  0  0  0  0  0
   -3.6114   -2.5507    0.0000 C   0  0  0  0  0  0  0  0  0  0  0  0
   -2.9304   -1.2142    0.0000 C   0  0  0  0  0  0  0  0  0  0  0  0
   -1.4489   -1.4489    0.0000 C   0  0  0  0  0  0  0  0  0  0  0  0
   -1.0607    0.0000    0.0000 C   0  0  0  0  0  0  0  0  0  0  0  0
   -0.0000   -1.0607    0.0000 C   0  0  0  0  0  0  0  0  0  0  0  0
    1.0607    0.0000    0.0000 C   0  0  0  0  0  0  0  0  0  0  0  0
    0.0000    1.0607    0.0000 C   0  0  0  0  0  0  0  0  0  0  0  0
  1  2  1  0
  2  3  1  0
  3  4  1  0
  4  5  1  0
  5  6  1  0
  6  7  1  0
  7  8  1  1
  7  9  1  0
  9 10  1  6
 10 11  1  0
  7 12  1  0
 12 13  2  3
 13 14  1  0
 14 15  1  0
 15 16  2  0
 16 17  1  0
 17 18  2  0
 18 19  1  0
 19 20  1  0
 20 21  1  0
 21 22  1  0
 22 23  1  0
 23 24  1  0
 24 25  2  3
 25 26  1  0
 26 27  2  0
 27 28  1  0
 28 29  2  0
 29 30  1  0
 30 31  1  0
 31 32  1  0
 32 33  2  0
 33 34  2  0
  9  1  1  0
 19 14  2  0
 22 16  1  0
 29 18  1  0
 30 26  1  0
 32 30  1  0
 34 31  1  0
M  RAD  2   3   2   5   2
M  END
$$$$
