
     RDKit          3D

 16 17  0  0  0  0  0  0  0  0999 V2000
   -3.6034    2.7692   -1.1528 C   0  0  0  0  0  0  0  0  0  0  0  0
   -4.3781    2.0311   -0.2222 O   0  0  0  0  0  0  0  0  0  0  0  0
   -3.7268    1.3201    0.7459 C   0  0  0  0  0  0  0  0  0  0  0  0
   -2.7653    0.4579    0.5445 C   0  0  0  0  0  0  0  0  0  0  0  0
   -2.1399    0.0242   -0.6921 C   0  0  0  0  0  0  0  0  0  0  0  0
   -1.1956   -0.8825   -0.3681 C   0  0  0  0  0  0  0  0  0  0  0  0
   -1.1730   -1.0688    1.0709 C   0  0  0  0  0  0  0  0  0  0  0  0
   -2.0867   -0.2879    1.5964 C   0  0  0  0  0  0  0  0  0  0  0  0
   -0.2724   -1.9812    1.7937 C   0  0  0  0  0  0  0  0  0  0  0  0
    1.1660   -1.5881    1.5273 C   0  0  0  0  0  0  0  0  0  0  0  0
    1.5143   -1.6517    0.0688 C   0  0  0  0  0  0  0  0  0  0  0  0
    2.9505   -1.2476   -0.0952 C   0  0  0  0  0  0  0  0  0  0  0  0
    3.5683   -1.2211   -1.4588 C   0  0  0  0  0  0  0  0  0  0  0  0
    3.1999    0.0752   -0.8281 C   0  0  0  0  0  0  0  0  0  0  0  0
    4.3363    0.8689   -0.1887 C   0  0  0  0  0  0  0  0  0  0  0  0
    4.6059    2.3824   -1.0446 Cl  0  0  0  0  0  0  0  0  0  0  0  0
  1  2  1  0
  2  3  1  0
  3  4  2  3
  4  5  1  0
  5  6  2  0
  6  7  1  0
  7  8  2  0
  7  9  1  0
  9 10  1  0
 10 11  1  0
 11 12  1  0
 12 13  1  0
 13 14  1  0
 14 15  1  0
 15 16  1  0
  8  4  1  0
 14 12  1  0
M  END
$$$$
