
     RDKit          3D

 19 18  0  0  0  0  0  0  0  0999 V2000
   -4.6454   -2.2341   -0.1588 O   0  0  0  0  0  0  0  0  0  0  0  0
   -3.6690   -2.4195    0.7227 O   0  0  0  0  0  0  0  0  0  0  0  0
   -2.4621   -2.1953    0.0636 C   0  0  0  0  0  3  0  0  0  0  0  0
   -2.5728   -1.0712   -0.7203 O   0  0  0  0  0  0  0  0  0  0  0  0
   -2.1009    0.0489   -0.0714 C   0  0  2  0  0  0  0  0  0  0  0  0
   -2.2381    1.2522   -0.9563 C   0  0  0  0  0  0  0  0  0  0  0  0
   -1.7860    2.4135   -0.3746 O   0  0  0  0  0  0  0  0  0  0  0  0
   -0.5823   -0.1582    0.2281 C   0  0  1  0  0  0  0  0  0  0  0  0
    0.1234   -0.3494   -1.0530 C   0  0  0  0  0  3  0  0  0  0  0  0
    1.5319   -0.7657   -0.8793 C   0  0  0  0  0  0  0  0  0  0  0  0
    1.6666   -2.0856   -0.1260 C   0  0  0  0  0  3  0  0  0  0  0  0
    3.1207   -2.4241    0.0008 C   0  0  0  0  0  0  0  0  0  0  0  0
    3.9604   -1.5102   -0.5643 F   0  0  0  0  0  0  0  0  0  0  0  0
   -0.1828    0.9472    1.0878 C   0  0  0  0  0  0  0  0  0  0  0  0
    1.0303    1.1420    1.5641 O   0  0  0  0  0  0  0  0  0  0  0  0
    2.0318    1.4015    0.6646 C   0  0  2  0  0  0  0  0  0  0  0  0
    3.3291    1.5891    1.4436 C   0  0  0  0  0  2  0  0  0  0  0  0
    1.7767    2.5770   -0.2312 C   0  0  0  0  0  3  0  0  0  0  0  0
    1.6685    3.8420    0.6209 C   0  0  0  0  0  2  0  0  0  0  0  0
  1  2  1  0
  2  3  1  0
  3  4  1  0
  4  5  1  0
  5  6  1  6
  6  7  1  0
  5  8  1  0
  8  9  1  6
  9 10  1  0
 10 11  1  0
 11 12  1  0
 12 13  1  0
  8 14  1  0
 14 15  1  0
 15 16  1  0
 16 17  1  1
 16 18  1  0
 18 19  1  0
M  RAD  6   3   2   9   2  11   2  17   3  18   2  19   3
M  END
$$$$
