
     RDKit          3D

  8  7  0  0  0  0  0  0  0  0999 V2000
   -2.7258   -0.0977    0.2463 F   0  0  0  0  0  0  0  0  0  0  0  0
   -2.3438    0.5423   -0.8800 N   0  0  0  0  0  3  0  0  0  0  0  0
   -1.2091    0.4158   -1.4624 C   0  0  0  0  0  0  0  0  0  0  0  0
   -0.2916   -0.4520   -0.8891 O   0  0  0  0  0  0  0  0  0  0  0  0
   -0.2244   -0.4412    0.8591 S   0  0  0  0  0  0  0  0  0  0  0  0
    1.2479    0.5638    1.2889 C   0  0  0  0  0  0  0  0  0  0  0  0
    2.3832   -0.2026    0.8093 N   0  0  0  0  0  0  0  0  0  0  0  0
    3.1636    0.2499    0.0278 O   0  0  0  0  0  0  0  0  0  0  0  0
  1  2  1  0
  2  3  2  3
  3  4  1  0
  4  5  1  0
  5  6  1  0
  6  7  1  0
  7  8  2  0
M  CHG  1   2   1
M  RAD  1   2   2
M  END
$$$$
