
     RDKit          3D

  7  7  0  0  0  0  0  0  0  0999 V2000
    0.7388   -1.3324   -0.1119 C   0  0  0  0  0  0  0  0  0  0  0  0
   -0.5891   -1.3977    0.3497 O   0  0  0  0  0  0  0  0  0  0  0  0
   -1.5356   -0.4167    0.0954 C   0  0  0  0  0  0  0  0  0  0  0  0
   -1.3101    0.8765   -0.0393 C   0  0  0  0  0  0  0  0  0  0  0  0
   -0.0185    1.5445    0.0511 C   0  0  0  0  0  0  0  0  0  0  0  0
    1.2017    1.0449   -0.0545 C   0  0  0  0  0  0  0  0  0  0  0  0
    1.5128   -0.3192   -0.2905 N   0  0  0  0  0  0  0  0  0  0  0  0
  1  2  1  0
  2  3  1  0
  3  4  2  0
  4  5  1  0
  5  6  2  0
  6  7  1  0
  1  7  2  0
M  END
$$$$
