
     RDKit          3D

 71 71  0  0  0  0  0  0  0  0999 V2000
  -12.1881   -2.3626    5.6372 C   0  0  0  0  0  0  0  0  0  0  0  0
  -11.1054   -2.2688    4.5568 C   0  0  0  0  0  0  0  0  0  0  0  0
  -10.0944   -1.2029    4.9968 C   0  0  0  0  0  0  0  0  0  0  0  0
  -11.8122   -1.7753    3.2986 C   0  0  0  0  0  0  0  0  0  0  0  0
  -12.4167   -0.4308    3.6100 C   0  0  0  0  0  0  0  0  0  0  0  0
  -13.1242    0.0904    2.3958 C   0  0  0  0  0  0  0  0  0  0  0  0
  -12.1590    0.2467    1.2219 C   0  0  1  0  0  0  0  0  0  0  0  0
  -11.6076   -1.1525    0.9688 C   0  0  0  0  0  0  0  0  0  0  0  0
  -12.9741    0.7260    0.0534 C   0  0  0  0  0  3  0  0  0  0  0  0
  -12.1772    0.9536   -1.1937 C   0  0  0  0  0  0  0  0  0  0  0  0
  -11.4625   -0.2823   -1.6836 C   0  0  0  0  0  0  0  0  0  0  0  0
  -10.6810   -0.0216   -2.9421 C   0  0  1  0  0  0  0  0  0  0  0  0
  -11.5184    0.4461   -4.0912 C   0  0  0  0  0  0  0  0  0  0  0  0
   -9.4589    0.8203   -2.6924 C   0  0  0  0  0  0  0  0  0  0  0  0
   -8.5573    0.1311   -1.7369 C   0  0  0  0  0  0  0  0  0  0  0  0
   -8.0717   -1.1480   -2.1287 N   0  0  0  0  0  1  0  0  0  0  0  0
   -8.8333    0.3286   -0.2933 C   0  0  0  0  0  0  0  0  0  0  0  0
   -8.7674    1.7467    0.1651 C   0  0  0  0  0  0  0  0  0  0  0  0
   -7.4400    2.4030   -0.0423 C   0  0  0  0  0  0  0  0  0  0  0  0
   -7.5437    3.7176    0.4349 O   0  0  0  0  0  0  0  0  0  0  0  0
   -6.3479    1.6795    0.7190 C   0  0  0  0  0  0  0  0  0  0  0  0
   -6.2202    0.2430    0.2727 C   0  0  0  0  0  0  0  0  0  0  0  0
   -5.5039   -0.6115    1.2698 C   0  0  0  0  0  0  0  0  0  0  0  0
   -4.5089   -1.5676    0.6074 C   0  0  0  0  0  0  0  0  0  0  0  0
   -5.3420   -2.6367   -0.0283 C   0  0  0  0  0  0  0  0  0  0  0  0
   -5.2893   -2.7360   -1.3466 C   0  0  0  0  0  0  0  0  0  0  0  0
   -4.5074   -1.9021   -2.1335 O   0  0  0  0  0  0  0  0  0  0  0  0
   -4.9920   -0.7099   -2.5778 O   0  0  0  0  0  0  0  0  0  0  0  0
   -4.1944    0.2455   -3.1602 C   0  0  0  0  0  0  0  0  0  0  0  0
   -4.3115    1.5246   -2.8399 C   0  0  0  0  0  0  0  0  0  0  0  0
   -5.2965    2.0191   -1.8438 C   0  0  0  0  0  0  0  0  0  0  0  0
   -4.6925    2.8646   -0.7691 C   0  0  0  0  0  0  0  0  0  0  0  0
   -5.0308    2.4182    0.6211 C   0  0  0  0  0  0  0  0  0  0  0  0
   -3.9087    1.5320    1.1167 C   0  0  0  0  0  0  0  0  0  0  0  0
   -2.5826    2.2296    1.0331 C   0  0  0  0  0  0  0  0  0  0  0  0
   -1.5024    1.3017    1.5386 C   0  0  0  0  0  0  0  0  0  0  0  0
   -1.5153    0.0741    0.6633 C   0  0  0  0  0  0  0  0  0  0  0  0
   -1.2615    0.3985   -0.7362 C   0  0  0  0  0  0  0  0  0  0  0  0
   -1.2302   -0.6343   -1.7598 C   0  0  0  0  0  0  0  0  0  0  0  0
   -1.1718    1.8182   -1.0928 C   0  0  0  0  0  0  0  0  0  0  0  0
   -0.0187    2.4623   -0.3099 C   0  0  0  0  0  0  0  0  0  0  0  0
    1.2242    1.6768   -0.7618 C   0  0  0  0  0  0  0  0  0  0  0  0
    1.3227    1.8648   -2.2356 C   0  0  0  0  0  0  0  0  0  0  0  0
    1.4687    3.3635   -2.5372 C   0  0  0  0  0  0  0  0  0  0  0  0
    2.4221    1.1358   -2.9276 C   0  0  0  0  0  0  0  0  0  0  0  0
    3.7510    1.5535   -2.3706 C   0  0  0  0  0  0  0  0  0  0  0  0
    3.9396    1.1426   -0.9032 C   0  0  0  0  0  0  0  0  0  0  0  0
    5.1994    1.6626   -0.4974 O   0  0  0  0  0  0  0  0  0  0  0  0
    4.0212   -0.3562   -0.8756 C   0  0  0  0  0  0  0  0  0  0  0  0
    2.8166   -1.0725   -1.4090 C   0  0  0  0  0  0  0  0  0  0  0  0
    5.2962   -0.9930   -1.2815 C   0  0  0  0  0  3  0  0  0  0  0  0
    5.7459   -0.6638   -2.6689 C   0  0  0  0  0  0  0  0  0  0  0  0
    6.4173    0.6560   -2.7237 C   0  0  0  0  0  3  0  0  0  0  0  0
    7.8252    0.6295   -2.1508 C   0  0  0  0  0  0  0  0  0  0  0  0
    8.6927   -0.2628   -3.0509 C   0  0  0  0  0  0  0  0  0  0  0  0
    7.8748    0.0860   -0.7307 C   0  0  0  0  0  0  0  0  0  0  0  0
    9.3091    0.1218   -0.3069 C   0  0  0  0  0  0  0  0  0  0  0  0
    9.5203   -0.3976    1.0992 C   0  0  0  0  0  0  0  0  0  0  0  0
    8.7467    0.4172    2.1137 C   0  0  0  0  0  0  0  0  0  0  0  0
   10.9960   -0.4413    1.4467 C   0  0  0  0  0  3  0  0  0  0  0  0
   11.7701   -1.3283    0.5237 C   0  0  0  0  0  0  0  0  0  0  0  0
   13.2273   -1.2991    0.9358 C   0  0  0  0  0  0  0  0  0  0  0  0
   14.0894   -2.1719    0.0554 C   0  0  0  0  0  0  0  0  0  0  0  0
   15.5095   -2.0974    0.5094 C   0  0  0  0  0  3  0  0  0  0  0  0
   15.7178   -2.5411    1.8940 C   0  0  0  0  0  0  0  0  0  0  0  0
   16.6826   -2.0994    2.5893 N   0  0  0  0  0  0  0  0  0  0  0  0
   17.8049   -0.9381    1.9145 S   0  0  0  0  0  0  0  0  0  0  0  0
   18.8149   -0.1576    3.1836 C   0  0  0  0  0  0  0  0  0  0  0  0
   19.7527   -1.1669    3.8451 C   0  0  0  0  0  0  0  0  0  0  0  0
   20.5699   -0.4609    4.8953 C   0  0  0  0  0  0  0  0  0  0  0  0
   20.8925   -1.8318    2.6468 Cl  0  0  0  0  0  0  0  0  0  0  0  0
  1  2  1  0
  2  3  1  0
  2  4  1  0
  4  5  1  0
  5  6  1  0
  6  7  1  0
  7  8  1  6
  7  9  1  0
  9 10  1  0
 10 11  1  0
 11 12  1  0
 12 13  1  6
 12 14  1  0
 14 15  1  0
 15 16  1  0
 15 17  1  0
 17 18  1  0
 18 19  1  0
 19 20  1  0
 19 21  1  0
 21 22  1  0
 22 23  1  0
 23 24  1  0
 24 25  1  0
 25 26  2  3
 26 27  1  0
 27 28  1  0
 28 29  1  0
 29 30  2  3
 30 31  1  0
 31 32  1  0
 32 33  1  0
 33 34  1  0
 34 35  1  0
 35 36  1  0
 36 37  1  0
 37 38  1  0
 38 39  1  0
 38 40  1  0
 40 41  1  0
 41 42  1  0
 42 43  1  0
 43 44  1  0
 43 45  1  0
 45 46  1  0
 46 47  1  0
 47 48  1  0
 47 49  1  0
 49 50  1  0
 49 51  1  0
 51 52  1  0
 52 53  1  0
 53 54  1  0
 54 55  1  0
 54 56  1  0
 56 57  1  0
 57 58  1  0
 58 59  1  0
 58 60  1  0
 60 61  1  0
 61 62  1  0
 62 63  1  0
 63 64  1  0
 64 65  1  0
 65 66  2  3
 66 67  1  0
 67 68  1  0
 68 69  1  0
 69 70  1  0
 69 71  1  0
 33 21  1  0
M  CHG  1  16   1
M  RAD  6   9   2  16   2  51   2  53   2  60   2  64   2
M  END
$$$$
