
     RDKit          3D

 30 31  0  0  0  0  0  0  0  0999 V2000
    4.2864    1.9283   -0.0726 C   0  0  0  0  0  0  0  0  0  0  0  0
    5.3858    0.8930   -0.1378 C   0  0  0  0  0  0  0  0  0  0  0  0
    5.6058    0.3121    1.2565 C   0  0  0  0  0  0  0  0  0  0  0  0
    6.6404    1.6242   -0.6083 C   0  0  0  0  0  0  0  0  0  0  0  0
    5.0657   -0.2364   -1.0459 C   0  0  0  0  0  0  0  0  0  0  0  0
    3.8005   -0.5077   -1.3044 C   0  0  0  0  0  0  0  0  0  0  0  0
    2.7130    0.2754   -0.7198 C   0  0  0  0  0  0  0  0  0  0  0  0
    2.0498    1.1823   -1.6009 N   0  0  0  0  0  0  0  0  0  0  0  0
    1.7994   -0.4848    0.2014 C   0  0  0  0  0  0  0  0  0  0  0  0
    1.1150   -1.6519   -0.5025 C   0  0  0  0  0  0  0  0  0  0  0  0
    2.4843   -1.0168    1.4152 C   0  0  0  0  0  0  0  0  0  0  0  0
    0.7048    0.4671    0.5978 C   0  0  0  0  0  0  0  0  0  0  0  0
    0.6168    0.8503    1.9536 S   0  0  0  0  0  0  0  0  0  0  0  0
   -0.2219    0.9491   -0.4656 C   0  0  0  0  0  0  0  0  0  0  0  0
   -1.6222    0.8024   -0.0653 N   0  0  0  0  0  0  0  0  0  0  0  0
   -1.9501   -0.0972    1.0116 C   0  0  0  0  0  0  0  0  0  0  0  0
   -2.9340   -1.1444    0.6344 C   0  0  0  0  0  0  0  0  0  0  0  0
   -4.2612   -0.8599    0.9809 C   0  0  0  0  0  0  0  0  0  0  0  0
   -5.2494   -1.7734    0.6754 C   0  0  0  0  0  0  0  0  0  0  0  0
   -4.9423   -2.9390    0.0445 C   0  0  0  0  0  0  0  0  0  0  0  0
   -6.1709   -4.1182   -0.3570 Cl  0  0  0  0  0  0  0  0  0  0  0  0
   -3.6268   -3.1960   -0.2863 C   0  0  0  0  0  0  0  0  0  0  0  0
   -2.6057   -2.3203   -0.0049 C   0  0  0  0  0  0  0  0  0  0  0  0
   -1.2019   -2.5463   -0.3384 C   0  0  0  0  0  0  0  0  0  0  0  0
   -0.2968   -1.5982   -0.2199 C   0  0  0  0  0  0  0  0  0  0  0  0
   -2.5594    1.5715   -0.7921 C   0  0  0  0  0  0  0  0  0  0  0  0
   -2.2396    2.7442   -1.1847 N   0  0  0  0  0  0  0  0  0  0  0  0
   -1.0015    3.2416   -0.8985 O   0  0  0  0  0  0  0  0  0  0  0  0
   -0.7828    3.6587    0.3992 C   0  0  0  0  0  0  0  0  0  0  0  0
   -0.6012    3.9905    1.4919 N   0  0  0  0  0  0  0  0  0  0  0  0
  1  2  1  0
  2  3  1  0
  2  4  1  0
  2  5  1  0
  5  6  2  3
  6  7  1  0
  7  8  1  0
  7  9  1  0
  9 10  1  0
  9 11  1  0
  9 12  1  0
 12 13  2  0
 12 14  1  0
 14 15  1  0
 15 16  1  0
 16 17  1  0
 17 18  2  0
 18 19  1  0
 19 20  2  0
 20 21  1  0
 20 22  1  0
 22 23  2  0
 23 24  1  0
 24 25  2  3
 15 26  1  0
 26 27  2  3
 27 28  1  0
 28 29  1  0
 29 30  3  0
 25 10  1  0
 23 17  1  0
M  END
$$$$
