
     RDKit          3D

 36 35  0  0  0  0  0  0  0  0999 V2000
    1.8877   -0.5149   -3.1722 C   0  0  0  0  0  0  0  0  0  0  0  0
    1.5373   -0.5373   -1.7172 C   0  0  0  0  0  0  0  0  0  0  0  0
    0.1647   -1.0820   -1.5477 C   0  0  0  0  0  0  0  0  0  0  0  0
   -0.7517   -0.4667   -0.8170 C   0  0  0  0  0  0  0  0  0  0  0  0
   -2.0626   -1.0873   -0.7185 C   0  0  0  0  0  0  0  0  0  0  0  0
   -3.0384   -0.5492   -0.0141 C   0  0  0  0  0  0  0  0  0  0  0  0
   -2.7975    0.7217    0.6976 C   0  0  0  0  0  2  0  0  0  0  0  0
   -4.3199   -1.2330    0.0335 C   0  0  0  0  0  0  0  0  0  0  0  0
   -5.2880   -0.6965    0.7339 C   0  0  0  0  0  0  0  0  0  0  0  0
   -5.1304    0.5577    1.4662 C   0  0  2  0  0  0  0  0  0  0  0  0
   -4.9619    0.2397    2.8766 N   0  0  0  0  0  0  0  0  0  0  0  0
   -6.1976    1.5768    1.3262 C   0  0  0  0  0  3  0  0  0  0  0  0
   -6.4778    1.9808   -0.0748 C   0  0  0  0  0  0  0  0  0  0  0  0
   -7.1885    1.1565   -0.9465 C   0  0  0  0  0  0  0  0  0  0  0  0
   -7.9798    0.1599   -1.0018 C   0  0  0  0  0  0  0  0  0  0  0  0
   -8.4483   -0.3299   -2.3797 C   0  0  0  0  0  0  0  0  0  0  0  0
   -8.5772   -0.5464    0.1128 C   0  0  0  0  0  0  0  0  0  0  0  0
   -8.3549   -0.1328    1.4430 N   0  0  0  0  0  0  0  0  0  0  0  0
   -9.3095    0.4389    2.0921 C   0  0  0  0  0  0  0  0  0  0  0  0
   -9.3785   -1.5834   -0.0615 C   0  0  0  0  0  0  0  0  0  0  0  0
    2.4821   -1.4960   -1.0268 C   0  0  0  0  0  0  0  0  0  0  0  0
    2.2194   -1.5981    0.4502 C   0  0  0  0  0  0  0  0  0  0  0  0
    1.5638    0.8332   -1.0802 C   0  0  0  0  0  0  0  0  0  0  0  0
    2.9256    1.4790   -1.1742 C   0  0  0  0  0  0  0  0  0  0  0  0
    3.8921    0.5985   -0.4703 C   0  0  0  0  0  0  0  0  0  0  0  0
    4.6036    0.9897    0.5673 C   0  0  0  0  0  0  0  0  0  0  0  0
    5.4932    0.0528    1.1519 N   0  0  0  0  0  0  0  0  0  0  0  0
    5.7057   -1.2332    0.6281 N   0  0  0  0  0  0  0  0  0  0  0  0
    6.8226   -1.4435    0.0168 C   0  0  0  0  0  0  0  0  0  0  0  0
    7.8176   -0.4305   -0.1351 N   0  0  0  0  0  0  0  0  0  0  0  0
    9.0093   -0.7457   -0.8170 C   0  0  0  0  0  0  0  0  0  0  0  0
    9.2127   -1.8863   -1.2888 O   0  0  0  0  0  0  0  0  0  0  0  0
    7.5823    0.9024    0.4151 C   0  0  0  0  0  0  0  0  0  0  0  0
    8.0565    1.0000    1.7588 N   0  0  0  0  0  0  0  0  0  0  0  0
    9.1521    1.5954    1.9675 C   0  0  0  0  0  0  0  0  0  0  0  0
   10.1342    2.3142    0.7060 Cl  0  0  0  0  0  0  0  0  0  0  0  0
  1  2  1  0
  2  3  1  0
  3  4  2  0
  4  5  1  0
  5  6  2  0
  6  7  1  0
  6  8  1  0
  8  9  2  3
  9 10  1  0
 10 11  1  1
 10 12  1  0
 12 13  1  0
 13 14  1  0
 14 15  2  3
 15 16  1  0
 15 17  1  0
 17 18  1  0
 18 19  2  0
 17 20  2  0
  2 21  1  0
 21 22  1  0
  2 23  1  0
 23 24  1  0
 24 25  1  0
 25 26  2  3
 26 27  1  0
 27 28  1  0
 28 29  2  3
 29 30  1  0
 30 31  1  0
 31 32  2  0
 30 33  1  0
 33 34  1  0
 34 35  2  3
 35 36  1  0
M  RAD  2   7   3  12   2
M  END
$$$$
