
     RDKit          3D

 26 27  0  0  0  0  0  0  0  0999 V2000
    6.3307    0.0816   -0.9081 C   0  0  0  0  0  0  0  0  0  0  0  0
    5.0462   -0.3954   -0.3199 C   0  0  0  0  0  0  0  0  0  0  0  0
    4.1321   -0.6794   -1.1504 O   0  0  0  0  0  0  0  0  0  0  0  0
    4.8482   -0.5251    1.0400 O   0  0  0  0  0  0  0  0  0  0  0  0
    3.6271   -0.9767    1.5603 C   0  0  0  0  0  3  0  0  0  0  0  0
    3.6635   -2.4469    1.6830 C   0  0  0  0  0  0  0  0  0  0  0  0
    3.6432   -3.1970    0.7041 O   0  0  0  0  0  0  0  0  0  0  0  0
    2.4308   -0.5555    0.7704 C   0  0  0  0  0  0  0  0  0  0  0  0
    2.3861    0.9621    0.6392 C   0  0  0  0  0  0  0  0  0  0  0  0
    1.1837    1.4049   -0.1560 C   0  0  0  0  0  3  0  0  0  0  0  0
   -0.0552    0.9247    0.5699 C   0  0  0  0  0  0  0  0  0  0  0  0
    0.0164   -0.5804    0.6545 C   0  0  0  0  0  0  0  0  0  0  0  0
   -0.7981   -1.2768   -0.3873 C   0  0  2  0  0  0  0  0  0  0  0  0
   -0.3593   -0.9412   -1.8004 C   0  0  0  0  0  0  0  0  0  0  0  0
   -2.2334   -0.8903   -0.2436 C   0  0  0  0  0  0  0  0  0  0  0  0
   -3.2348   -1.6809   -0.5370 C   0  0  0  0  0  0  0  0  0  0  0  0
   -4.5810   -1.1966   -0.3570 C   0  0  0  0  0  0  0  0  0  0  0  0
   -5.5261   -2.0217   -0.3266 O   0  0  0  0  0  0  0  0  0  0  0  0
   -4.9245    0.2408   -0.2031 C   0  0  0  0  0  0  0  0  0  0  0  0
   -3.7005    1.1208   -0.3145 C   0  0  0  0  0  0  0  0  0  0  0  0
   -2.4799    0.4996    0.2724 C   0  0  0  0  0  0  0  0  0  0  0  0
   -2.4792    0.4457    1.7633 C   0  0  0  0  0  0  0  0  0  0  0  0
   -1.2709    1.3184   -0.1998 C   0  0  1  0  0  0  0  0  0  0  0  0
   -1.6160    2.7720   -0.1110 C   0  0  0  0  0  0  0  0  0  0  0  0
   -1.8807    3.2151    1.2837 C   0  0  0  0  0  0  0  0  0  0  0  0
   -2.1685    4.3782    1.4545 O   0  0  0  0  0  0  0  0  0  0  0  0
  1  2  1  0
  2  3  2  0
  2  4  1  0
  4  5  1  0
  5  6  1  0
  6  7  2  0
  5  8  1  0
  8  9  1  0
  9 10  1  0
 10 11  1  0
 11 12  1  0
 12 13  1  0
 13 14  1  6
 13 15  1  0
 15 16  2  0
 16 17  1  0
 17 18  2  0
 17 19  1  0
 19 20  1  0
 20 21  1  0
 21 22  1  0
 21 23  1  0
 23 24  1  1
 24 25  1  0
 25 26  2  0
 23 11  1  0
 21 15  1  0
M  RAD  2   5   2  10   2
M  END
$$$$
