
     RDKit          3D

 31 34  0  0  0  0  0  0  0  0999 V2000
   -3.5390    1.9590    0.2134 C   0  0  0  0  0  0  0  0  0  0  0  0
   -2.4013    2.9319    0.4126 C   0  0  0  0  0  0  0  0  0  0  0  0
   -2.2038    3.0947    1.8937 C   0  0  0  0  0  0  0  0  0  0  0  0
   -1.1554    2.4134   -0.2644 C   0  0  0  0  0  0  0  0  0  0  0  0
   -0.1980    3.5787   -0.4380 C   0  0  0  0  0  0  0  0  0  0  0  0
    0.9087    3.3846    0.5939 C   0  0  0  0  0  0  0  0  0  0  0  0
    2.2039    3.7822   -0.0849 C   0  0  1  0  0  0  0  0  0  0  0  0
    2.4440    5.2722    0.0625 C   0  0  0  0  0  0  0  0  0  0  0  0
    3.3668    3.0827    0.5981 C   0  0  0  0  0  3  0  0  0  0  0  0
    3.2259    1.6042    0.2864 C   0  0  0  0  0  0  0  0  0  0  0  0
    4.6064    1.0641   -0.0687 C   0  0  0  0  0  0  0  0  0  0  0  0
    4.6900   -0.3900    0.2567 C   0  0  2  0  0  0  0  0  0  0  0  0
    6.1306   -0.8324    0.2638 C   0  0  0  0  0  0  0  0  0  0  0  0
    3.9317   -1.2161   -0.7658 C   0  0  0  0  0  3  0  0  0  0  0  0
    3.8371   -2.6372   -0.2963 C   0  0  0  0  0  0  0  0  0  0  0  0
    2.4495   -2.9033    0.2452 C   0  0  1  0  0  0  0  0  0  0  0  0
    2.3963   -2.3955    1.6739 C   0  0  0  0  0  2  0  0  0  0  0  0
    1.3875   -2.2233   -0.6077 C   0  0  0  0  0  0  0  0  0  0  0  0
    0.0953   -2.0597    0.1430 C   0  0  0  0  0  0  0  0  0  0  0  0
    0.1597   -2.7149    1.3934 O   0  0  0  0  0  0  0  0  0  0  0  0
   -0.6361   -3.8128    1.0044 C   0  0  0  0  0  0  0  0  0  0  0  0
   -0.8531   -3.1206   -0.3042 C   0  0  0  0  0  0  0  0  0  0  0  0
   -2.2369   -2.6184   -0.5361 C   0  0  0  0  0  0  0  0  0  0  0  0
   -2.8811   -1.5598    0.2280 C   0  0  0  0  0  0  0  0  0  0  0  0
   -3.2237   -1.8476    1.6605 C   0  0  0  0  0  2  0  0  0  0  0  0
   -4.0784   -1.7789   -0.6637 C   0  0  0  0  0  0  0  0  0  0  0  0
   -3.2884   -2.8200   -1.3289 C   0  0  0  0  0  0  0  0  0  0  0  0
   -2.3009   -0.1886    0.0134 C   0  0  0  0  0  0  0  0  0  0  0  0
   -3.3120    0.7578   -0.5998 C   0  0  1  0  0  0  0  0  0  0  0  0
   -4.7436    0.4731   -0.2761 C   0  0  0  0  0  0  0  0  0  0  0  0
   -4.7818    1.7203    0.4996 C   0  0  0  0  0  0  0  0  0  0  0  0
  1  2  1  0
  2  3  1  0
  2  4  1  0
  4  5  1  0
  5  6  1  0
  6  7  1  0
  7  8  1  1
  7  9  1  0
  9 10  1  0
 10 11  1  0
 11 12  1  0
 12 13  1  6
 12 14  1  0
 14 15  1  0
 15 16  1  0
 16 17  1  1
 16 18  1  0
 18 19  1  0
 19 20  1  0
 20 21  1  0
 21 22  1  0
 22 23  1  0
 23 24  1  0
 24 25  1  0
 24 26  1  0
 26 27  1  0
 24 28  1  0
 29 28  1  1
 29 30  1  0
 30 31  1  0
 29  1  1  0
  1 31  2  0
 22 19  1  0
 23 27  2  0
M  RAD  4   9   2  14   2  17   3  25   3
M  END
$$$$
