
     RDKit          3D

  8  7  0  0  0  0  0  0  0  0999 V2000
   -2.4016    0.9939   -0.0053 O   0  0  0  0  0  0  0  0  0  0  0  0
   -1.7150    0.0321    0.1257 N   0  0  0  0  0  3  0  0  0  0  0  0
   -1.3479   -0.8443   -0.9389 C   0  0  0  0  0  0  0  0  0  0  0  0
   -0.3425   -0.2845   -1.7527 O   0  0  0  0  0  0  0  0  0  0  0  0
    0.6718   -0.4101    0.5052 S   0  0  0  0  0  0  0  0  0  0  0  0
    1.0343   -1.3421    0.3386 N   0  0  0  0  0  0  0  0  0  0  0  0
    1.4470    1.2330   -0.3522 C   0  0  0  0  0  3  0  0  0  0  0  0
    2.6539    0.6220   -1.0010 C   0  0  0  0  0  2  0  0  0  0  0  0
  1  2  2  0
  2  3  1  0
  3  4  1  0
  4  5  1  0
  5  6  1  0
  5  7  1  0
  7  8  1  0
M  CHG  1   2   1
M  RAD  3   2   2   7   2   8   3
M  END
$$$$
