
     RDKit          2D

 35 41  0  0  0  0  0  0  0  0999 V2000
   -8.3683    0.2382    0.0000 C   0  0  0  0  0  0  0  0  0  0  0  0
   -9.3415   -0.9032    0.0000 C   0  0  0  0  0  0  0  0  0  0  0  0
   -8.4156   -2.0833    0.0000 N   0  0  0  0  0  0  0  0  0  0  0  0
   -8.7610   -3.5430    0.0000 C   0  0  0  0  0  0  0  0  0  0  0  0
  -10.1176   -4.1831    0.0000 N   0  0  0  0  0  0  0  0  0  0  0  0
  -11.4638   -3.5216    0.0000 C   0  0  0  0  0  0  0  0  0  0  0  0
  -12.6440   -4.4475    0.0000 N   0  0  0  0  0  0  0  0  0  0  0  0
  -11.7860   -2.0566    0.0000 N   0  0  0  0  0  0  0  0  0  0  0  0
  -10.8415   -0.8913    0.0000 C   0  0  0  0  0  0  0  0  0  0  0  0
  -11.5113   -1.3235    0.0000 O   0  0  0  0  0  0  0  0  0  0  0  0
  -10.8534   -2.3912    0.0000 C   0  0  0  0  0  0  0  0  0  0  0  0
   -9.3534   -2.4031    0.0000 C   0  0  0  0  0  0  0  0  0  0  0  0
   -8.3984   -3.5598    0.0000 S   0  0  0  0  0  0  0  0  0  0  0  0
   -6.9233   -3.8320    0.0000 C   0  0  0  0  0  0  0  0  0  0  0  0
   -5.6184   -3.0923    0.0000 C   0  0  0  0  0  0  0  0  0  0  0  0
   -5.2995   -4.5581    0.0000 C   0  0  0  0  0  0  0  0  0  0  0  0
   -4.2388   -5.6187    0.0000 C   0  0  0  0  0  0  0  0  0  0  0  0
   -4.9577   -6.9352    0.0000 Cl  0  0  0  0  0  0  0  0  0  0  0  0
   -2.7731   -5.9376    0.0000 C   0  0  0  0  0  0  0  0  0  0  0  0
   -1.3677   -5.4134    0.0000 C   0  0  0  0  0  0  0  0  0  0  0  0
   -0.4688   -4.2126    0.0000 C   0  0  0  0  0  0  0  0  0  0  0  0
   -0.6810   -2.3972    0.0000 N   0  0  0  0  0  0  0  0  0  0  0  0
   -2.1625   -2.1625    0.0000 C   0  0  0  0  0  0  0  0  0  0  0  0
   -2.3972   -0.6810    0.0000 C   0  0  0  0  0  0  0  0  0  0  0  0
   -3.8933   -0.7880    0.0000 C   0  0  0  0  0  0  0  0  0  0  0  0
   -5.0942   -1.6869    0.0000 C   0  0  0  0  0  0  0  0  0  0  0  0
   -5.5960   -0.2733    0.0000 C   0  0  0  0  0  0  0  0  0  0  0  0
   -6.8890    0.4869    0.0000 C   0  0  0  0  0  0  0  0  0  0  0  0
   -3.3780    0.9420    0.0000 C   0  0  0  0  0  0  0  0  0  0  0  0
   -1.8846    1.0815    0.0000 N   0  0  0  0  0  0  0  0  0  0  0  0
   -0.5943    0.3166    0.0000 C   0  0  0  0  0  0  0  0  0  0  0  0
   -0.0000   -1.0607    0.0000 C   0  0  0  0  0  0  0  0  0  0  0  0
    1.0607    0.0000    0.0000 C   0  0  0  0  0  0  0  0  0  0  0  0
    0.0000    1.0607    0.0000 C   0  0  0  0  0  0  0  0  0  0  0  0
   -1.0607    0.0000    0.0000 C   0  0  0  0  0  0  0  0  0  0  0  0
  1  2  1  0
  2  3  1  0
  3  4  1  0
  4  5  2  0
  5  6  1  0
  6  7  1  0
  6  8  2  0
  8  9  1  0
  9 10  1  0
  9 11  1  0
 11 12  1  0
 12 13  1  0
 13 14  1  0
 14 15  2  3
 15 16  1  0
 16 17  2  3
 17 18  1  0
 17 19  1  0
 19 20  2  0
 20 21  2  0
 21 22  1  0
 22 23  1  0
 23 24  2  0
 24 25  1  0
 25 26  2  3
 26 27  1  0
 27 28  1  0
 28 29  1  0
 29 30  1  0
 30 31  1  0
 31 32  1  0
 32 33  1  0
 33 34  1  0
 34 35  2  0
  1 28  2  3
  9  2  1  0
 12  2  1  0
 26 15  1  0
 32 22  1  0
 35 24  1  0
 35 32  1  0
M  END
$$$$
