
     RDKit          3D

  4  3  0  0  0  0  0  0  0  0999 V2000
   -1.8294   -0.4760   -0.2930 N   0  0  0  0  0  0  0  0  0  0  0  0
   -0.9985    0.1204    0.4800 C   0  0  0  0  0  0  0  0  0  0  0  0
    0.5240    0.8819   -0.2101 P   0  0  0  0  0  0  0  0  0  0  0  0
    2.3039   -0.5264    0.0231 Br  0  0  0  0  0  0  0  0  0  0  0  0
  1  2  2  0
  2  3  1  0
  3  4  1  0
M  END
$$$$
