
     RDKit          3D

  9  8  0  0  0  0  0  0  0  0999 V2000
    2.9517    0.3864   -0.6223 C   0  0  0  0  0  0  0  0  0  0  0  0
    3.0938   -1.0410   -0.0922 C   0  0  0  0  0  0  0  0  0  0  0  0
    2.1338   -1.1469    1.0804 C   0  0  0  0  0  0  0  0  0  0  0  0
    0.7145   -0.8897    0.6725 C   0  0  0  0  0  0  0  0  0  0  0  0
    0.5182    0.4974    0.0797 C   0  0  0  0  0  0  0  0  0  0  0  0
   -0.9536    0.6035   -0.2796 C   0  0  0  0  0  0  0  0  0  0  0  0
   -1.7051    0.4234    0.9457 N   0  0  0  0  0  0  0  0  0  0  0  0
   -3.1171    0.4818    0.8617 C   0  0  0  0  0  0  0  0  0  0  0  0
   -3.6362    0.6851   -0.2622 O   0  0  0  0  0  0  0  0  0  0  0  0
  1  2  1  0
  2  3  1  0
  3  4  1  0
  4  5  1  0
  5  6  1  0
  6  7  1  0
  7  8  1  0
  8  9  2  0
M  END
$$$$
