
     RDKit          3D

 25 24  0  0  0  0  0  0  0  0999 V2000
    8.0074    1.4588   -0.9605 N   0  0  0  0  0  0  0  0  0  0  0  0
    6.8071    1.3467   -0.6235 C   0  0  0  0  0  0  0  0  0  0  0  0
    5.3788    1.2266   -0.2087 C   0  0  0  0  0  0  0  0  0  0  0  0
    4.6244    0.6553   -1.1012 C   0  0  0  0  0  0  0  0  0  0  0  0
    3.1591    0.4437   -0.8919 C   0  0  0  0  0  0  0  0  0  0  0  0
    2.5973   -0.1669   -2.0202 C   0  0  0  0  0  0  0  0  0  0  0  0
    3.2876   -0.5236   -3.1529 C   0  0  0  0  0  3  0  0  0  0  0  0
    3.4008    0.6045   -4.1509 C   0  0  0  0  0  0  0  0  0  0  0  0
    1.1266   -0.5446   -1.7244 C   0  0  0  0  0  3  0  0  0  0  0  0
    1.0887   -0.6821   -0.3017 O   0  0  0  0  0  0  0  0  0  0  0  0
    0.7579   -1.9438    0.0819 C   0  0  0  0  0  0  0  0  0  0  0  0
   -0.6460   -2.1295   -0.3100 O   0  0  0  0  0  0  0  0  0  0  0  0
   -1.2662   -1.1291    0.3999 N   0  0  0  0  0  0  0  0  0  0  0  0
   -1.5004   -0.1103   -0.6618 C   0  0  0  0  0  0  0  0  0  0  0  0
   -2.1803    1.1027   -0.1538 C   0  0  0  0  0  3  0  0  0  0  0  0
   -3.5929    1.1509   -0.3452 C   0  0  0  0  0  0  0  0  0  0  0  0
   -4.6406    1.0337    0.1872 N   0  0  0  0  0  0  0  0  0  0  0  0
   -4.7796    0.6595    1.6706 C   0  0  0  0  0  0  0  0  0  0  0  0
   -6.0369    0.9595    2.0809 N   0  0  0  0  0  3  0  0  0  0  0  0
   -6.9502    1.3368    2.6422 C   0  0  0  0  0  0  0  0  0  0  0  0
   -7.0436    2.0858    3.8603 O   0  0  0  0  0  0  0  0  0  0  0  0
   -5.8129    2.1915    4.5972 C   0  0  0  0  0  0  0  0  0  0  0  0
    0.7805   -2.1437    1.6004 C   0  0  0  0  0  0  0  0  0  0  0  0
    1.4085   -2.9552   -0.4925 N   0  0  0  0  0  4  0  0  0  0  0  0
    2.0249   -3.9269   -1.0655 C   0  0  0  0  0  0  0  0  0  0  0  0
  1  2  3  0
  2  3  1  0
  3  4  2  3
  4  5  1  0
  5  6  2  3
  6  7  1  0
  7  8  1  0
  6  9  1  0
  9 10  1  0
 10 11  1  0
 11 12  1  0
 12 13  1  0
 13 14  1  0
 14 15  1  0
 15 16  1  0
 16 17  2  3
 17 18  1  0
 18 19  1  0
 19 20  2  3
 20 21  1  0
 21 22  1  0
 11 23  1  0
 11 24  1  0
 24 25  3  0
M  CHG  2  19   1  24   1
M  RAD  4   7   2   9   2  15   2  19   2
M  END
$$$$
