
     RDKit          3D

 53 55  0  0  0  0  0  0  0  0999 V2000
   -5.7279    1.2336    0.4038 C   0  0  0  0  0  0  0  0  0  0  0  0
   -4.6780    0.2201    0.5381 C   0  0  0  0  0  0  0  0  0  0  0  0
   -4.7712   -0.8128    1.5995 C   0  0  2  0  0  0  0  0  0  0  0  0
   -6.0088   -1.6333    1.3761 C   0  0  0  0  0  0  0  0  0  0  0  0
   -5.0251   -0.0401    2.9615 C   0  0  2  0  0  0  0  0  0  0  0  0
   -6.3089    0.6620    2.7469 N   0  0  0  0  0  0  0  0  0  0  0  0
   -7.5811    0.0939    2.8167 C   0  0  0  0  0  0  0  0  0  0  0  0
   -7.7012   -1.0986    3.1435 O   0  0  0  0  0  0  0  0  0  0  0  0
   -8.6857    1.0278    2.4851 C   0  0  2  0  0  0  0  0  0  0  0  0
  -10.0288    0.6814    2.0954 C   0  0  0  0  0  0  0  0  0  0  0  0
   -9.0077    1.2125    1.0555 C   0  0  0  0  0  0  0  0  0  0  0  0
   -8.6933   -0.0279    0.2012 C   0  0  0  0  0  0  0  0  0  0  0  0
   -9.1769    0.1374   -1.1610 N   0  0  0  0  0  0  0  0  0  0  0  0
   -9.3910   -1.1764    0.8778 C   0  0  0  0  0  0  0  0  0  0  0  0
  -10.5202   -0.4688    1.4491 N   0  0  0  0  0  0  0  0  0  0  0  0
  -11.8402   -0.8896    1.2905 C   0  0  0  0  0  0  0  0  0  0  0  0
  -12.8891   -0.3300    1.7147 O   0  0  0  0  0  0  0  0  0  0  0  0
   -4.0667    1.1204    2.9633 N   0  0  0  0  0  0  0  0  0  0  0  0
   -2.8424    0.7472    2.4204 N   0  0  0  0  0  0  0  0  0  0  0  0
   -2.2780    1.9061    1.7817 N   0  0  0  0  0  0  0  0  0  0  0  0
   -1.5258    1.5865    0.6562 N   0  0  0  0  0  0  0  0  0  0  0  0
   -2.1734    1.2839   -0.5608 N   0  0  0  0  0  0  0  0  0  0  0  0
   -1.5547    0.5279   -1.4122 C   0  0  0  0  0  0  0  0  0  0  0  0
   -0.2351    0.1006   -0.9491 N   0  0  0  0  0  0  0  0  0  0  0  0
    0.0242    0.3764    0.4297 C   0  0  0  0  0  0  0  0  0  0  0  0
    1.5127    0.4082    0.7286 C   0  0  0  0  0  0  0  0  0  0  0  0
    2.1338    1.5507   -0.1184 C   0  0  0  0  0  0  0  0  0  0  0  0
    1.4652    2.7489    0.2711 N   0  0  0  0  0  0  0  0  0  0  0  0
    0.6861   -0.5178   -1.7600 N   0  0  0  0  0  4  0  0  0  0  0  0
    0.7660   -0.5269   -3.1876 N   0  0  0  0  0  0  0  0  0  0  0  0
   -0.3658   -0.3149   -4.0115 N   0  0  0  0  0  0  0  0  0  0  0  0
   -1.5584   -0.7983   -3.3906 N   0  0  0  0  0  0  0  0  0  0  0  0
   -1.2556   -1.8330   -2.4872 N   0  0  0  0  0  0  0  0  0  0  0  0
   -2.2555    0.2412   -2.6763 C   0  0  0  0  0  0  0  0  0  0  0  0
    1.5803   -1.2601   -1.1657 C   0  0  0  0  0  0  0  0  0  0  0  0
    2.5168   -1.8896   -2.0992 N   0  0  0  0  0  0  0  0  0  0  0  0
    3.3825   -0.8562   -2.7558 C   0  0  0  0  0  0  0  0  0  0  0  0
    4.7100   -1.5018   -2.7112 N   0  0  0  0  0  0  0  0  0  0  0  0
    5.6717   -0.3818   -3.0174 C   0  0  0  0  0  0  0  0  0  0  0  0
    6.6863   -0.5716   -1.8931 N   0  0  0  0  0  0  0  0  0  0  0  0
    6.2877    0.0756   -0.8036 N   0  0  0  0  0  4  0  0  0  0  0  0
    5.1533    0.7996   -0.7462 N   0  0  0  0  0  0  0  0  0  0  0  0
    7.0889   -0.0609    0.3403 N   0  0  0  0  0  0  0  0  0  0  0  0
    8.3641    0.1145    0.1192 N   0  0  0  0  0  3  0  0  0  0  0  0
    8.6771    0.3946   -1.2878 C   0  0  0  0  0  0  0  0  0  0  0  0
   10.0438    0.5511   -1.4603 N   0  0  0  0  0  0  0  0  0  0  0  0
   10.8813    0.8915   -0.6087 N   0  0  0  0  0  3  0  0  0  0  0  0
   10.6530    1.1873    0.7061 N   0  0  0  0  0  4  0  0  0  0  0  0
    9.6912    2.0900    1.1115 N   0  0  0  0  0  0  0  0  0  0  0  0
   11.3412    0.5887    1.6273 N   0  0  0  0  0  3  0  0  0  0  0  0
   12.3223   -0.3907    1.1445 C   0  0  0  0  0  0  0  0  0  0  0  0
   13.2257    0.1388    0.1901 N   0  0  0  0  0  0  0  0  0  0  0  0
   13.2811   -0.2455   -0.9814 N   0  0  0  0  0  2  0  0  0  0  0  0
  1  2  1  0
  2  3  1  0
  3  4  1  6
  3  5  1  0
  5  6  1  6
  6  7  1  0
  7  8  2  0
  9  7  1  6
  9 10  1  0
  9 11  1  0
 11 12  1  0
 12 13  1  0
 12 14  1  0
 14 15  1  0
 15 16  1  0
 16 17  2  0
  5 18  1  0
 18 19  1  0
 19 20  1  0
 20 21  1  0
 21 22  1  0
 22 23  2  3
 23 24  1  0
 24 25  1  0
 25 26  1  0
 26 27  1  0
 27 28  1  0
 24 29  1  0
 29 30  1  0
 30 31  1  0
 31 32  1  0
 32 33  1  0
 32 34  1  0
 29 35  2  3
 35 36  1  0
 36 37  1  0
 37 38  1  0
 38 39  1  0
 39 40  1  0
 40 41  2  3
 41 42  1  0
 41 43  1  0
 43 44  2  3
 44 45  1  0
 45 46  1  0
 46 47  2  3
 47 48  1  0
 48 49  1  0
 48 50  2  3
 50 51  1  0
 51 52  1  0
 52 53  2  0
 11 10  1  0
 15 10  1  0
 34 23  1  0
M  CHG  7  29   1  41   1  44   1  47   1  48   1  50   1  53   1
M  RAD  4  44   2  47   2  50   2  53   3
M  END
$$$$
