
     RDKit          2D

 77 78  0  0  0  0  0  0  0  0999 V2000
   14.2500  -11.6913    0.0000 C   0  0  0  0  0  0  0  0  0  0  0  0
   12.7500  -11.6913    0.0000 C   0  0  0  0  0  0  0  0  0  0  0  0
   12.0000  -12.9904    0.0000 C   0  0  0  0  0  0  0  0  0  0  0  0
   12.0000  -10.3923    0.0000 C   0  0  0  0  0  0  0  0  0  0  0  0
   10.5000  -10.3923    0.0000 C   0  0  0  0  0  0  0  0  0  0  0  0
    9.7500   -9.0933    0.0000 C   0  0  0  0  0  0  0  0  0  0  0  0
    8.2500   -9.0933    0.0000 C   0  0  0  0  0  0  0  0  0  0  0  0
    7.5000  -10.3923    0.0000 C   0  0  0  0  0  0  0  0  0  0  0  0
    7.5000   -7.7942    0.0000 C   0  0  0  0  0  3  0  0  0  0  0  0
    8.2500   -6.4952    0.0000 C   0  0  0  0  0  0  0  0  0  0  0  0
    7.5000   -5.1962    0.0000 C   0  0  0  0  0  0  0  0  0  0  0  0
    8.2500   -3.8971    0.0000 C   0  0  0  0  0  0  0  0  0  0  0  0
    9.7500   -3.8971    0.0000 C   0  0  0  0  0  0  0  0  0  0  0  0
    7.5000   -2.5981    0.0000 C   0  0  0  0  0  3  0  0  0  0  0  0
    6.0000   -2.5981    0.0000 C   0  0  0  0  0  0  0  0  0  0  0  0
    5.2500   -1.2990    0.0000 C   0  0  0  0  0  0  0  0  0  0  0  0
    6.0000    0.0000    0.0000 N   0  0  0  0  0  0  0  0  0  0  0  0
    3.7500   -1.2990    0.0000 C   0  0  0  0  0  3  0  0  0  0  0  0
    3.0000    0.0000    0.0000 C   0  0  0  0  0  3  0  0  0  0  0  0
    1.5000    0.0000    0.0000 C   0  0  0  0  0  0  0  0  0  0  0  0
    0.7500   -1.2990    0.0000 C   0  0  0  0  0  0  0  0  0  0  0  0
    0.7500    1.2990    0.0000 C   0  0  0  0  0  0  0  0  0  0  0  0
   -0.7500    1.2990    0.0000 C   0  0  0  0  0  0  0  0  0  0  0  0
   -2.2500    1.2990    0.0000 C   0  0  0  0  0  0  0  0  0  0  0  0
   -2.6634    2.7410    0.0000 O   0  0  0  0  0  0  0  0  0  0  0  0
   -3.0000   -0.0000    0.0000 C   0  0  0  0  0  3  0  0  0  0  0  0
   -2.2500   -1.2990    0.0000 C   0  0  0  0  0  0  0  0  0  0  0  0
   -0.7500   -1.2990    0.0000 C   0  0  0  0  0  0  0  0  0  0  0  0
   -1.5000   -2.5981    0.0000 C   0  0  0  0  0  2  0  0  0  0  0  0
   -1.5000    0.0000    0.0000 C   0  0  0  0  0  0  0  0  0  0  0  0
   -3.0000    0.0000    0.0000 N   0  0  0  0  0  0  0  0  0  0  0  0
   -3.7500    1.2990    0.0000 C   0  0  0  0  0  0  0  0  0  0  0  0
   -5.2500    1.2990    0.0000 C   0  0  0  0  0  2  0  0  0  0  0  0
   -3.0000    2.5981    0.0000 C   0  0  0  0  0  0  0  0  0  0  0  0
   -3.7500    3.8971    0.0000 N   0  0  0  0  0  0  0  0  0  0  0  0
   -3.0000    5.1962    0.0000 C   0  0  0  0  0  0  0  0  0  0  0  0
   -3.7500    6.4952    0.0000 C   0  0  0  0  0  0  0  0  0  0  0  0
   -3.0000    7.7942    0.0000 C   0  0  0  0  0  0  0  0  0  0  0  0
   -3.7500    9.0933    0.0000 C   0  0  0  0  0  3  0  0  0  0  0  0
   -3.0000   10.3923    0.0000 C   0  0  0  0  0  0  0  0  0  0  0  0
   -1.5000    5.1962    0.0000 C   0  0  0  0  0  0  0  0  0  0  0  0
   -0.7500    6.4952    0.0000 C   0  0  0  0  0  0  0  0  0  0  0  0
    0.7500    6.4952    0.0000 C   0  0  0  0  0  0  0  0  0  0  0  0
    1.5000    7.7942    0.0000 C   0  0  0  0  0  0  0  0  0  0  0  0
    1.5000    5.1962    0.0000 C   0  0  0  0  0  0  0  0  0  0  0  0
    3.0000    5.1962    0.0000 C   0  0  0  0  0  3  0  0  0  0  0  0
    3.7500    3.8971    0.0000 C   0  0  0  0  0  3  0  0  0  0  0  0
    5.2500    3.8971    0.0000 C   0  0  0  0  0  3  0  0  0  0  0  0
    6.0000    2.5981    0.0000 C   0  0  0  0  0  3  0  0  0  0  0  0
    7.5000    2.5981    0.0000 C   0  0  0  0  0  0  0  0  0  0  0  0
    8.2500    1.2990    0.0000 C   0  0  0  0  0  3  0  0  0  0  0  0
    9.7500    1.2990    0.0000 C   0  0  0  0  0  3  0  0  0  0  0  0
   10.5000   -0.0000    0.0000 C   0  0  0  0  0  0  0  0  0  0  0  0
   12.0000   -0.0000    0.0000 C   0  0  0  0  0  0  0  0  0  0  0  0
   12.7500   -1.2990    0.0000 C   0  0  0  0  0  2  0  0  0  0  0  0
   12.7500    1.2990    0.0000 C   0  0  0  0  0  3  0  0  0  0  0  0
   14.2500    1.2990    0.0000 C   0  0  0  0  0  3  0  0  0  0  0  0
   15.0000    2.5981    0.0000 C   0  0  0  0  0  3  0  0  0  0  0  0
   16.5000    2.5981    0.0000 N   0  0  0  0  0  0  0  0  0  0  0  0
   17.2500    3.8971    0.0000 C   0  0  0  0  0  0  0  0  0  0  0  0
   18.7500    3.8971    0.0000 C   0  0  0  0  0  0  0  0  0  0  0  0
   19.5000    5.1962    0.0000 C   0  0  0  0  0  0  0  0  0  0  0  0
   19.5000    2.5981    0.0000 C   0  0  0  0  0  3  0  0  0  0  0  0
   21.0000    2.5981    0.0000 C   0  0  0  0  0  3  0  0  0  0  0  0
   21.7500    1.2990    0.0000 C   0  0  0  0  0  3  0  0  0  0  0  0
   23.2500    1.2990    0.0000 C   0  0  0  0  0  0  0  0  0  0  0  0
   24.0000   -0.0000    0.0000 C   0  0  0  0  0  0  0  0  0  0  0  0
   24.0000    2.5981    0.0000 C   0  0  0  0  0  3  0  0  0  0  0  0
   25.5000    2.5981    0.0000 C   0  0  0  0  0  0  0  0  0  0  0  0
   26.2500    3.8971    0.0000 C   0  0  0  0  0  3  0  0  0  0  0  0
   27.7500    3.8971    0.0000 C   0  0  0  0  0  3  0  0  0  0  0  0
   28.5000    5.1962    0.0000 C   0  0  0  0  0  3  0  0  0  0  0  0
   30.0000    5.1962    0.0000 C   0  0  0  0  0  0  0  0  0  0  0  0
   30.7500    6.4952    0.0000 C   0  0  0  0  0  3  0  0  0  0  0  0
   32.2500    6.4952    0.0000 C   0  0  0  0  0  3  0  0  0  0  0  0
   33.0000    7.7942    0.0000 C   0  0  0  0  0  0  0  0  0  0  0  0
   34.5000    7.7942    0.0000 C   0  0  0  0  0  0  0  0  0  0  0  0
  1  2  1  0
  2  3  1  0
  2  4  1  0
  4  5  1  0
  5  6  1  0
  6  7  1  0
  7  8  1  1
  7  9  1  0
  9 10  1  0
 10 11  1  0
 11 12  1  0
 12 13  1  1
 12 14  1  0
 14 15  1  0
 15 16  1  0
 16 17  1  0
 16 18  1  0
 18 19  1  0
 20 19  1  1
 20 21  1  0
 20 22  1  0
 22 23  1  0
 23 24  1  0
 24 25  1  1
 24 26  1  0
 26 27  1  0
 27 28  1  0
 28 29  1  0
 28 30  1  0
 30 31  1  6
 31 32  1  0
 32 33  1  6
 32 34  1  0
 34 35  1  0
 35 36  1  0
 36 37  1  6
 37 38  1  0
 38 39  1  0
 39 40  1  0
 36 41  1  0
 41 42  1  0
 42 43  1  0
 43 44  1  1
 43 45  1  0
 45 46  1  0
 46 47  1  0
 47 48  1  0
 48 49  1  0
 49 50  1  0
 50 51  1  0
 51 52  1  0
 52 53  1  0
 53 54  1  0
 54 55  1  0
 54 56  1  0
 56 57  1  0
 57 58  1  0
 58 59  1  0
 59 60  1  0
 60 61  1  0
 61 62  1  6
 61 63  1  0
 63 64  1  0
 64 65  1  0
 65 66  1  0
 66 67  1  6
 66 68  1  0
 68 69  1  0
 69 70  1  0
 70 71  1  0
 71 72  1  0
 72 73  1  0
 73 74  1  0
 74 75  1  0
 75 76  1  0
 76 77  1  0
 28 21  1  0
 30 23  1  0
M  RAD  8   9   2  14   2  18   2  19   2  26   2  29   3  33   3  39   2
M  RAD  8  46   2  47   2  48   2  49   2  51   2  52   2  55   3  56   2
M  RAD  8  57   2  58   2  63   2  64   2  65   2  68   2  70   2  71   2
M  RAD  3  72   2  74   2  75   2
M  END
$$$$
