
     RDKit          3D

 27 26  0  0  0  0  0  0  0  0999 V2000
    4.5672    2.6169    1.3255 C   0  0  0  0  0  0  0  0  0  0  0  0
    4.9652    1.2796    0.6403 C   0  0  0  0  0  0  0  0  0  0  0  0
    5.9802    1.6579   -0.4561 C   0  0  0  0  0  0  0  0  0  0  0  0
    5.6864    0.4305    1.6451 C   0  0  0  0  0  0  0  0  0  0  0  0
    6.1019   -0.8976    1.1397 C   0  0  0  0  0  0  0  0  0  0  0  0
    4.9731   -1.7573    0.7414 C   0  0  0  0  0  0  0  0  0  0  0  0
    4.0920   -1.3178   -0.3615 C   0  0  1  0  0  0  0  0  0  0  0  0
    4.7661   -1.1462   -1.6767 C   0  0  0  0  0  0  0  0  0  0  0  0
    2.8578   -2.1886   -0.4561 C   0  0  0  0  0  3  0  0  0  0  0  0
    2.0459   -2.1180    0.8269 C   0  0  0  0  0  0  0  0  0  0  0  0
    1.6041   -0.6657    1.0437 C   0  0  0  0  0  0  0  0  0  0  0  0
    0.7583   -0.3211   -0.1903 C   0  0  2  0  0  0  0  0  0  0  0  0
    0.2715    1.1121   -0.0678 C   0  0  0  0  0  0  0  0  0  0  0  0
   -0.3856   -1.3170   -0.3100 C   0  0  0  0  0  3  0  0  0  0  0  0
   -1.3550   -1.2242    0.8027 C   0  0  0  0  0  0  0  0  0  0  0  0
   -2.3176   -0.0463    0.7318 C   0  0  1  0  0  0  0  0  0  0  0  0
   -3.1119   -0.1799   -0.4189 N   0  0  0  0  0  0  0  0  0  0  0  0
   -2.6214   -0.1592   -1.7093 C   0  0  0  0  0  0  0  0  0  0  0  0
   -2.1107    1.0902   -2.3090 C   0  0  0  0  0  0  0  0  0  0  0  0
   -3.0999    2.2157   -2.4101 C   0  0  0  0  0  0  0  0  0  0  0  0
   -2.3810    3.3896   -3.0476 C   0  0  0  0  0  0  0  0  0  0  0  0
   -3.1917   -0.1801    1.9638 C   0  0  0  0  0  3  0  0  0  0  0  0
   -4.2205    0.8826    2.1002 C   0  0  0  0  0  3  0  0  0  0  0  0
   -5.2103    0.9340    0.9862 C   0  0  0  0  0  0  0  0  0  0  0  0
   -5.9684   -0.3353    0.8319 C   0  0  0  0  0  0  0  0  0  0  0  0
   -6.9231   -0.4373   -0.1555 O   0  0  0  0  0  0  0  0  0  0  0  0
   -5.7725   -1.3176    1.5668 O   0  0  0  0  0  0  0  0  0  0  0  0
  1  2  1  0
  2  3  1  0
  2  4  1  0
  4  5  1  0
  5  6  1  0
  6  7  1  0
  7  8  1  6
  7  9  1  0
  9 10  1  0
 10 11  1  0
 11 12  1  0
 12 13  1  1
 12 14  1  0
 14 15  1  0
 16 15  1  1
 16 17  1  0
 17 18  1  0
 18 19  1  0
 19 20  1  0
 20 21  1  0
 16 22  1  0
 22 23  1  0
 23 24  1  0
 24 25  1  0
 25 26  1  0
 25 27  2  0
M  RAD  4   9   2  14   2  22   2  23   2
M  END
$$$$
