
     RDKit          3D

 23 24  0  0  0  0  0  0  0  0999 V2000
   -2.8124   -2.5221   -0.5447 C   0  0  0  0  0  0  0  0  0  0  0  0
   -2.6969   -1.0146   -0.7260 C   0  0  1  0  0  0  0  0  0  0  0  0
   -3.8837   -0.4101   -0.0165 C   0  0  0  0  0  0  0  0  0  0  0  0
   -3.9105    1.0933   -0.1088 C   0  0  2  0  0  0  0  0  0  0  0  0
   -4.8969    1.6252   -0.8756 O   0  0  0  0  0  0  0  0  0  0  0  0
   -2.5266    1.6511   -0.4200 C   0  0  2  0  0  0  0  0  0  0  0  0
   -2.3032    1.3750   -1.7895 O   0  0  0  0  0  0  0  0  0  0  0  0
   -1.5841    0.8451    0.4340 C   0  0  1  0  0  0  0  0  0  0  0  0
   -2.1612    0.5547    1.6737 O   0  0  0  0  0  0  0  0  0  0  0  0
   -1.3687   -0.4822   -0.2995 C   0  0  1  0  0  0  0  0  0  0  0  0
   -0.6570   -1.3980    0.5834 N   0  0  0  0  0  0  0  0  0  0  0  0
    0.7593   -1.0882    0.4654 C   0  0  1  0  0  0  0  0  0  0  0  0
    1.2500   -1.4176   -0.9354 C   0  0  0  0  0  0  0  0  0  0  0  0
    2.7504   -1.5000   -0.9940 C   0  0  0  0  0  0  0  0  0  0  0  0
    3.2579   -2.7147   -0.5427 O   0  0  0  0  0  0  0  0  0  0  0  0
    3.4459   -0.3170   -0.4224 C   0  0  1  0  0  0  0  0  0  0  0  0
    3.4322    0.8041   -1.2092 O   0  0  0  0  0  0  0  0  0  0  0  0
    3.2475   -0.0835    1.0405 C   0  0  1  0  0  0  0  0  0  0  0  0
    4.4141    0.4897    1.6223 O   0  0  0  0  0  0  0  0  0  0  0  0
    2.1080    0.8702    1.3199 C   0  0  1  0  0  0  0  0  0  0  0  0
    2.4111    2.1967    1.0275 O   0  0  0  0  0  0  0  0  0  0  0  0
    0.8688    0.4407    0.5608 C   0  0  1  0  0  0  0  0  0  0  0  0
    0.8559    1.0022   -0.7267 O   0  0  0  0  0  0  0  0  0  0  0  0
  2  1  1  1
  2  3  1  0
  3  4  1  0
  4  5  1  6
  4  6  1  0
  6  7  1  6
  6  8  1  0
  8  9  1  1
  8 10  1  0
 10 11  1  1
 12 11  1  6
 12 13  1  0
 13 14  1  0
 14 15  1  0
 14 16  1  0
 16 17  1  6
 16 18  1  0
 18 19  1  6
 18 20  1  0
 20 21  1  6
 20 22  1  0
 22 23  1  6
 10  2  1  0
 22 12  1  0
M  END
$$$$
