
     RDKit          3D

 16 15  0  0  0  0  0  0  0  0999 V2000
   -4.1258    1.3022    0.2112 C   0  0  0  0  0  0  0  0  0  0  0  0
   -4.3332   -0.0354   -0.1333 O   0  0  0  0  0  0  0  0  0  0  0  0
   -2.6561    1.6167   -0.0343 C   0  0  0  0  0  0  0  0  0  0  0  0
   -1.8683    0.6701    0.8561 C   0  0  0  0  0  0  0  0  0  0  0  0
   -2.1657   -0.7705    0.5105 C   0  0  0  0  0  0  0  0  0  0  0  0
   -1.7770   -1.0080   -0.9470 C   0  0  0  0  0  0  0  0  0  0  0  0
   -0.3390   -0.7256   -1.0845 N   0  0  0  0  0  0  0  0  0  0  0  0
    0.5656   -1.4754   -0.3246 C   0  0  0  0  0  0  0  0  0  0  0  0
    0.1078   -2.3764    0.4588 O   0  0  0  0  0  0  0  0  0  0  0  0
    2.0267   -1.3224   -0.3409 C   0  0  0  0  0  0  0  0  0  0  0  0
    2.6890   -2.1771    0.4925 O   0  0  0  0  0  0  0  0  0  0  0  0
    2.4934    0.0209   -0.3432 N   0  0  0  0  0  0  0  0  0  0  0  0
    2.1010    0.9081    0.6917 C   0  0  0  0  0  0  0  0  0  0  0  0
    1.3400    0.4464    1.5812 O   0  0  0  0  0  0  0  0  0  0  0  0
    2.5583    2.3286    0.7433 C   0  0  0  0  0  0  0  0  0  0  0  0
    3.3833    2.5979   -0.3401 O   0  0  0  0  0  0  0  0  0  0  0  0
  1  2  1  0
  1  3  1  0
  3  4  1  0
  4  5  1  0
  5  6  1  0
  6  7  1  0
  7  8  1  0
  8  9  2  0
  8 10  1  0
 10 11  1  0
 10 12  1  0
 12 13  1  0
 13 14  2  0
 13 15  1  0
 15 16  1  0
M  END
$$$$
