
     RDKit          2D

 93 92  0  0  0  0  0  0  0  0999 V2000
    0.0000    0.0000    0.0000 C   0  0  0  0  0  0  0  0  0  0  0  0
    1.2990    0.7500    0.0000 C   0  0  0  0  0  0  0  0  0  0  0  0
    2.5981   -0.0000    0.0000 C   0  0  0  0  0  0  0  0  0  0  0  0
    3.8971    0.7500    0.0000 C   0  0  0  0  0  0  0  0  0  0  0  0
    5.1962   -0.0000    0.0000 C   0  0  0  0  0  0  0  0  0  0  0  0
    6.4952    0.7500    0.0000 C   0  0  0  0  0  0  0  0  0  0  0  0
    7.7942   -0.0000    0.0000 C   0  0  0  0  0  0  0  0  0  0  0  0
    9.0933    0.7500    0.0000 C   0  0  0  0  0  0  0  0  0  0  0  0
   10.3923   -0.0000    0.0000 C   0  0  0  0  0  0  0  0  0  0  0  0
   11.6913    0.7500    0.0000 C   0  0  0  0  0  0  0  0  0  0  0  0
   12.9904   -0.0000    0.0000 C   0  0  0  0  0  0  0  0  0  0  0  0
   14.2894    0.7500    0.0000 C   0  0  0  0  0  0  0  0  0  0  0  0
   14.2894    2.2500    0.0000 C   0  0  0  0  0  0  0  0  0  0  0  0
   15.5885    3.0000    0.0000 C   0  0  0  0  0  0  0  0  0  0  0  0
   15.5885    4.5000    0.0000 O   0  0  0  0  0  0  0  0  0  0  0  0
   16.8875    5.2500    0.0000 C   0  0  0  0  0  0  0  0  0  0  0  0
   16.8875    6.7500    0.0000 O   0  0  0  0  0  0  0  0  0  0  0  0
   15.5885   -0.0000    0.0000 C   0  0  0  0  0  0  0  0  0  0  0  0
   16.8875    0.7500    0.0000 C   0  0  0  0  0  0  0  0  0  0  0  0
   18.1865   -0.0000    0.0000 O   0  0  0  0  0  0  0  0  0  0  0  0
   19.4856    0.7500    0.0000 C   0  0  0  0  0  0  0  0  0  0  0  0
   20.7846   -0.0000    0.0000 C   0  0  0  0  0  3  0  0  0  0  0  0
   22.0836    0.7500    0.0000 C   0  0  0  0  0  3  0  0  0  0  0  0
   23.3827   -0.0000    0.0000 C   0  0  0  0  0  0  0  0  0  0  0  0
   24.6817    0.7500    0.0000 C   0  0  0  0  0  0  0  0  0  0  0  0
   25.9808   -0.0000    0.0000 C   0  0  0  0  0  0  0  0  0  0  0  0
   27.2798    0.7500    0.0000 C   0  0  0  0  0  0  0  0  0  0  0  0
   28.5788   -0.0000    0.0000 C   0  0  0  0  0  3  0  0  0  0  0  0
   29.8779    0.7500    0.0000 C   0  0  0  0  0  3  0  0  0  0  0  0
   31.1769   -0.0000    0.0000 C   0  0  0  0  0  0  0  0  0  0  0  0
   32.4760    0.7500    0.0000 C   0  0  0  0  0  0  0  0  0  0  0  0
   33.7750   -0.0000    0.0000 C   0  0  0  0  0  0  0  0  0  0  0  0
   35.0740    0.7500    0.0000 C   0  0  0  0  0  0  0  0  0  0  0  0
   36.3731   -0.0000    0.0000 C   0  0  0  0  0  3  0  0  0  0  0  0
   37.6721    0.7500    0.0000 C   0  0  0  0  0  3  0  0  0  0  0  0
   38.9711   -0.0000    0.0000 C   0  0  0  0  0  0  0  0  0  0  0  0
   40.2702    0.7500    0.0000 C   0  0  0  0  0  0  0  0  0  0  0  0
   41.5692   -0.0000    0.0000 C   0  0  0  0  0  0  0  0  0  0  0  0
   42.8683    0.7500    0.0000 O   0  0  0  0  0  0  0  0  0  0  0  0
   19.4856    2.2500    0.0000 C   0  0  0  0  0  0  0  0  0  0  0  0
   20.7846    3.0000    0.0000 C   0  0  0  0  0  0  0  0  0  0  0  0
   20.7846    4.5000    0.0000 C   0  0  0  0  0  0  0  0  0  0  0  0
   22.0836    5.2500    0.0000 C   0  0  0  0  0  3  0  0  0  0  0  0
   22.0836    6.7500    0.0000 C   0  0  0  0  0  0  0  0  0  0  0  0
   23.3827    7.5000    0.0000 C   0  0  0  0  0  0  0  0  0  0  0  0
   23.3827    9.0000    0.0000 C   0  0  0  0  0  0  0  0  0  0  0  0
   24.6817    9.7500    0.0000 C   0  0  0  0  0  3  0  0  0  0  0  0
   24.6817   11.2500    0.0000 C   0  0  0  0  0  0  0  0  0  0  0  0
   25.9808   12.0000    0.0000 C   0  0  0  0  0  0  0  0  0  0  0  0
   25.9808   13.5000    0.0000 C   0  0  0  0  0  0  0  0  0  0  0  0
   27.2798   14.2500    0.0000 C   0  0  0  0  0  0  0  0  0  0  0  0
   27.2798   15.7500    0.0000 C   0  0  0  0  0  0  0  0  0  0  0  0
   28.5788   16.5000    0.0000 C   0  0  0  0  0  0  0  0  0  0  0  0
   28.5788   18.0000    0.0000 C   0  0  0  0  0  0  0  0  0  0  0  0
   29.8779   18.7500    0.0000 C   0  0  0  0  0  3  0  0  0  0  0  0
   29.8779   20.2500    0.0000 C   0  0  0  0  0  0  0  0  0  0  0  0
   19.4856    5.2500    0.0000 C   0  0  0  0  0  0  0  0  0  0  0  0
   19.4856    6.7500    0.0000 C   0  0  0  0  0  0  0  0  0  0  0  0
   18.1865    7.5000    0.0000 C   0  0  0  0  0  3  0  0  0  0  0  0
   18.1865    9.0000    0.0000 C   0  0  0  0  0  0  0  0  0  0  0  0
   16.8875    9.7500    0.0000 C   0  0  0  0  0  3  0  0  0  0  0  0
   16.8875   11.2500    0.0000 C   0  0  0  0  0  0  0  0  0  0  0  0
   15.5885   12.0000    0.0000 C   0  0  0  0  0  0  0  0  0  0  0  0
   15.5885   13.5000    0.0000 C   0  0  0  0  0  0  0  0  0  0  0  0
   14.2894   14.2500    0.0000 C   0  0  0  0  0  0  0  0  0  0  0  0
   14.2894   15.7500    0.0000 C   0  0  0  0  0  3  0  0  0  0  0  0
   12.9904   16.5000    0.0000 C   0  0  0  0  0  0  0  0  0  0  0  0
   12.9904   18.0000    0.0000 C   0  0  0  0  0  0  0  0  0  0  0  0
   11.6913   18.7500    0.0000 C   0  0  0  0  0  0  0  0  0  0  0  0
   11.6913   20.2500    0.0000 C   0  0  0  0  0  0  0  0  0  0  0  0
   10.3923   21.0000    0.0000 C   0  0  0  0  0  0  0  0  0  0  0  0
   10.3923   22.5000    0.0000 C   0  0  0  0  0  0  0  0  0  0  0  0
    9.0933   23.2500    0.0000 C   0  0  0  0  0  3  0  0  0  0  0  0
    9.0933   24.7500    0.0000 C   0  0  0  0  0  0  0  0  0  0  0  0
    7.7942   25.5000    0.0000 C   0  0  0  0  0  0  0  0  0  0  0  0
    7.7942   27.0000    0.0000 C   0  0  0  0  0  0  0  0  0  0  0  0
    6.4952   27.7500    0.0000 C   0  0  0  0  0  0  0  0  0  0  0  0
    6.4952   29.2500    0.0000 C   0  0  0  0  0  0  0  0  0  0  0  0
    5.1962   30.0000    0.0000 C   0  0  0  0  0  3  0  0  0  0  0  0
    5.1962   31.5000    0.0000 C   0  0  0  0  0  3  0  0  0  0  0  0
    3.8971   32.2500    0.0000 C   0  0  0  0  0  3  0  0  0  0  0  0
    3.8971   33.7500    0.0000 C   0  0  0  0  0  0  0  0  0  0  0  0
    2.5981   34.5000    0.0000 C   0  0  0  0  0  0  0  0  0  0  0  0
    2.5981   36.0000    0.0000 C   0  0  0  0  0  0  0  0  0  0  0  0
    1.2990   36.7500    0.0000 C   0  0  0  0  0  0  0  0  0  0  0  0
    1.2990   38.2500    0.0000 C   0  0  0  0  0  0  0  0  0  0  0  0
   -0.0000   39.0000    0.0000 C   0  0  0  0  0  0  0  0  0  0  0  0
   -0.0000   40.5000    0.0000 C   0  0  0  0  0  0  0  0  0  0  0  0
   -1.2990   41.2500    0.0000 C   0  0  0  0  0  2  0  0  0  0  0  0
    1.2990   41.2500    0.0000 C   0  0  0  0  0  3  0  0  0  0  0  0
    1.2990   42.7500    0.0000 C   0  0  0  0  0  3  0  0  0  0  0  0
    2.5981   43.5000    0.0000 C   0  0  0  0  0  3  0  0  0  0  0  0
    2.5981   45.0000    0.0000 C   0  0  0  0  0  2  0  0  0  0  0  0
  1  2  1  0
  2  3  1  0
  3  4  1  0
  4  5  1  0
  5  6  1  0
  6  7  1  0
  7  8  1  0
  8  9  1  0
  9 10  1  0
 10 11  1  0
 12 11  1  1
 12 13  1  0
 13 14  1  0
 14 15  1  0
 15 16  1  0
 16 17  2  0
 12 18  1  0
 18 19  1  0
 19 20  1  0
 20 21  1  0
 21 22  1  6
 22 23  1  0
 23 24  1  0
 24 25  1  0
 25 26  1  0
 26 27  1  0
 27 28  1  0
 28 29  1  0
 29 30  1  0
 30 31  1  0
 31 32  1  0
 32 33  1  0
 33 34  1  0
 34 35  1  0
 35 36  1  0
 36 37  1  0
 37 38  1  0
 38 39  2  0
 21 40  1  0
 40 41  1  0
 42 41  1  6
 42 43  1  0
 43 44  1  0
 44 45  1  0
 45 46  1  0
 46 47  1  0
 47 48  1  0
 48 49  1  0
 49 50  1  0
 50 51  1  0
 51 52  1  0
 52 53  1  0
 53 54  1  0
 54 55  1  0
 55 56  1  0
 42 57  1  0
 57 58  1  0
 58 59  1  0
 59 60  1  0
 60 61  1  0
 61 62  1  0
 62 63  1  0
 63 64  1  0
 64 65  1  0
 65 66  1  0
 66 67  1  0
 67 68  1  0
 68 69  1  0
 69 70  1  0
 70 71  1  0
 71 72  1  0
 72 73  1  0
 73 74  1  0
 74 75  1  0
 75 76  1  0
 76 77  1  0
 77 78  1  0
 78 79  1  0
 79 80  1  0
 80 81  1  0
 81 82  1  0
 82 83  1  0
 83 84  1  0
 84 85  1  0
 85 86  1  0
 86 87  1  0
 87 88  1  0
 88 89  1  1
 88 90  1  0
 90 91  1  0
 91 92  1  0
 92 93  1  0
M  RAD  8  22   2  23   2  28   2  29   2  34   2  35   2  43   2  47   2
M  RAD  8  55   2  59   2  61   2  66   2  73   2  79   2  80   2  81   2
M  RAD  5  89   3  90   2  91   2  92   2  93   3
M  END
$$$$
