
     RDKit          2D

 88 89  0  0  0  0  0  0  0  0999 V2000
   18.6611   -8.2481    0.0000 C   0  0  0  0  0  0  0  0  0  0  0  0
   17.3279   -7.5607    0.0000 O   0  0  0  0  0  0  0  0  0  0  0  0
   16.0660   -8.3717    0.0000 C   0  0  0  0  0  0  0  0  0  0  0  0
   14.7328   -7.6844    0.0000 C   0  0  0  0  0  0  0  0  0  0  0  0
   13.4709   -8.4953    0.0000 C   0  0  0  0  0  0  0  0  0  0  0  0
   13.5422   -9.9936    0.0000 C   0  0  0  0  0  0  0  0  0  0  0  0
   12.1376   -7.8080    0.0000 C   0  0  0  0  0  0  0  0  0  0  0  0
   12.0662   -6.3097    0.0000 C   0  0  0  0  0  0  0  0  0  0  0  0
   10.7330   -5.6223    0.0000 C   0  0  0  0  0  0  0  0  0  0  0  0
   10.6616   -4.1240    0.0000 C   0  0  0  0  0  0  0  0  0  0  0  0
    9.3284   -3.4367    0.0000 C   0  0  0  0  0  3  0  0  0  0  0  0
    9.2570   -1.9384    0.0000 C   0  0  0  0  0  0  0  0  0  0  0  0
    7.9237   -1.2511    0.0000 C   0  0  0  0  0  0  0  0  0  0  0  0
    7.8524    0.2472    0.0000 C   0  0  0  0  0  0  0  0  0  0  0  0
    9.1142    1.0582    0.0000 C   0  0  0  0  0  0  0  0  0  0  0  0
    6.5191    0.9346    0.0000 N   0  0  0  0  0  0  0  0  0  0  0  0
    5.2572    0.1236    0.0000 C   0  0  0  0  0  0  0  0  0  0  0  0
    3.9240    0.8110    0.0000 C   0  0  0  0  0  0  0  0  0  0  0  0
    2.6621    0.0000    0.0000 C   0  0  0  0  0  0  0  0  0  0  0  0
    1.5285    0.9823    0.0000 C   0  0  0  0  0  0  0  0  0  0  0  0
    1.1059    2.4215    0.0000 N   0  0  0  0  0  0  0  0  0  0  0  0
   -0.3789    2.6350    0.0000 C   0  0  0  0  0  3  0  0  0  0  0  0
   -1.7433    2.0119    0.0000 C   0  0  0  0  0  0  0  0  0  0  0  0
   -2.5543    0.7500    0.0000 C   0  0  0  0  0  0  0  0  0  0  0  0
   -2.5543   -0.7500    0.0000 C   0  0  0  0  0  0  0  0  0  0  0  0
   -1.7433   -2.0119    0.0000 C   0  0  0  0  0  0  0  0  0  0  0  0
   -2.7256   -3.1455    0.0000 C   0  0  0  0  0  0  0  0  0  0  0  0
   -4.1985   -2.8616    0.0000 C   0  0  0  0  0  3  0  0  0  0  0  0
   -5.1808   -3.9953    0.0000 C   0  0  0  0  0  0  0  0  0  0  0  0
   -6.6537   -3.7114    0.0000 C   0  0  0  0  0  2  0  0  0  0  0  0
   -0.3789   -2.6350    0.0000 C   0  0  0  0  0  0  0  0  0  0  0  0
    1.1059   -2.4215    0.0000 C   0  0  0  0  0  0  0  0  0  0  0  0
    2.2395   -1.4392    0.0000 C   0  0  0  0  0  0  0  0  0  0  0  0
    3.5014   -2.2502    0.0000 C   0  0  0  0  0  0  0  0  0  0  0  0
    4.8992   -1.7060    0.0000 C   0  0  0  0  0  0  0  0  0  0  0  0
    5.8487   -2.8672    0.0000 C   0  0  0  0  0  0  0  0  0  0  0  0
    5.0377   -4.1291    0.0000 C   0  0  0  0  0  0  0  0  0  0  0  0
    3.5870   -3.7478    0.0000 C   0  0  0  0  0  0  0  0  0  0  0  0
    2.4258   -4.6973    0.0000 C   0  0  0  0  0  0  0  0  0  0  0  0
    2.6675   -6.1777    0.0000 C   0  0  0  0  0  0  0  0  0  0  0  0
    1.5063   -7.1272    0.0000 C   0  0  0  0  0  0  0  0  0  0  0  0
    1.7480   -8.6076    0.0000 C   0  0  0  0  0  0  0  0  0  0  0  0
    0.5868   -9.5571    0.0000 C   0  0  0  0  0  0  0  0  0  0  0  0
    0.8285  -11.0375    0.0000 C   0  0  0  0  0  0  0  0  0  0  0  0
   -0.3327  -11.9870    0.0000 C   0  0  0  0  0  0  0  0  0  0  0  0
    2.2314  -11.5684    0.0000 C   0  0  0  0  0  0  0  0  0  0  0  0
    2.4731  -13.0488    0.0000 C   0  0  0  0  0  0  0  0  0  0  0  0
    3.8760  -13.5797    0.0000 O   0  0  0  0  0  0  0  0  0  0  0  0
    4.1177  -15.0601    0.0000 O   0  0  0  0  0  0  0  0  0  0  0  0
    5.5206  -15.5909    0.0000 C   0  0  0  0  0  0  0  0  0  0  0  0
    5.7623  -17.0713    0.0000 C   0  0  0  0  0  0  0  0  0  0  0  0
    7.1652  -17.6022    0.0000 C   0  0  0  0  0  0  0  0  0  0  0  0
    7.4069  -19.0826    0.0000 C   0  0  0  0  0  0  0  0  0  0  0  0
    8.8873  -18.8409    0.0000 O   0  0  0  0  0  0  0  0  0  0  0  0
    9.8369  -20.0021    0.0000 C   0  0  0  0  0  0  0  0  0  0  0  0
   11.3173  -19.7604    0.0000 C   0  0  0  0  0  0  0  0  0  0  0  0
   12.2668  -20.9216    0.0000 C   0  0  0  0  0  0  0  0  0  0  0  0
   13.7472  -20.6799    0.0000 C   0  0  0  0  0  0  0  0  0  0  0  0
   14.2781  -19.2770    0.0000 C   0  0  0  0  0  0  0  0  0  0  0  0
   15.7585  -19.0353    0.0000 C   0  0  0  0  0  0  0  0  0  0  0  0
   16.2893  -17.6324    0.0000 C   0  0  0  0  0  3  0  0  0  0  0  0
   17.7697  -17.3907    0.0000 C   0  0  0  0  0  0  0  0  0  0  0  0
   14.6967  -21.8412    0.0000 C   0  0  0  0  0  2  0  0  0  0  0  0
    7.6486  -20.5630    0.0000 C   0  0  0  0  0  3  0  0  0  0  0  0
    9.0516  -21.0939    0.0000 C   0  0  0  0  0  0  0  0  0  0  0  0
    9.2933  -22.5743    0.0000 C   0  0  0  0  0  0  0  0  0  0  0  0
   10.6962  -23.1052    0.0000 C   0  0  0  0  0  2  0  0  0  0  0  0
    8.1320  -23.5238    0.0000 C   0  0  0  0  0  2  0  0  0  0  0  0
    5.9265  -19.3243    0.0000 N   0  0  0  0  0  0  0  0  0  0  0  0
    5.3957  -20.7272    0.0000 C   0  0  0  0  0  0  0  0  0  0  0  0
    3.9153  -20.9689    0.0000 C   0  0  0  0  0  3  0  0  0  0  0  0
    3.3844  -22.3719    0.0000 C   0  0  0  0  0  0  0  0  0  0  0  0
    1.9040  -22.6136    0.0000 C   0  0  0  0  0  0  0  0  0  0  0  0
    1.3731  -24.0165    0.0000 C   0  0  0  0  0  3  0  0  0  0  0  0
   -0.1073  -24.2582    0.0000 C   0  0  0  0  0  3  0  0  0  0  0  0
   -0.6382  -25.6611    0.0000 C   0  0  0  0  0  0  0  0  0  0  0  0
   -2.1186  -25.9028    0.0000 C   0  0  0  0  0  3  0  0  0  0  0  0
   -2.6495  -27.3057    0.0000 C   0  0  0  0  0  0  0  0  0  0  0  0
   -4.1299  -27.5474    0.0000 C   0  0  0  0  0  0  0  0  0  0  0  0
   -4.6607  -28.9503    0.0000 C   0  0  0  0  0  0  0  0  0  0  0  0
   -6.1411  -29.1920    0.0000 C   0  0  0  0  0  0  0  0  0  0  0  0
   -6.6720  -30.5949    0.0000 C   0  0  0  0  0  0  0  0  0  0  0  0
   -5.7225  -31.7561    0.0000 C   0  0  0  0  0  0  0  0  0  0  0  0
   -8.1524  -30.8366    0.0000 C   0  0  0  0  0  2  0  0  0  0  0  0
    6.3452  -21.8884    0.0000 C   0  0  0  0  0  0  0  0  0  0  0  0
    5.8143  -23.2914    0.0000 C   0  0  0  0  0  0  0  0  0  0  0  0
    6.7638  -24.4526    0.0000 C   0  0  0  0  0  0  0  0  0  0  0  0
    6.2329  -25.8555    0.0000 C   0  0  0  0  0  2  0  0  0  0  0  0
  1  2  1  0
  2  3  1  0
  3  4  2  3
  4  5  1  0
  5  6  1  0
  5  7  1  0
  7  8  1  0
  8  9  2  3
  9 10  1  0
 10 11  1  0
 11 12  1  0
 12 13  1  0
 13 14  1  0
 14 15  1  0
 14 16  1  0
 16 17  2  3
 17 18  1  0
 19 18  1  1
 19 20  1  0
 20 21  2  0
 21 22  1  0
 22 23  1  0
 23 24  1  0
 24 25  1  0
 25 26  1  0
 26 27  1  1
 27 28  1  0
 28 29  1  0
 29 30  1  0
 26 31  1  0
 31 32  1  0
 32 33  1  0
 33 34  1  0
 34 35  1  0
 35 36  1  0
 36 37  1  0
 37 38  1  0
 38 39  1  0
 39 40  1  0
 40 41  1  0
 41 42  1  0
 42 43  1  0
 43 44  1  0
 44 45  1  6
 44 46  1  0
 46 47  1  0
 47 48  1  0
 48 49  1  0
 49 50  1  0
 50 51  1  0
 51 52  1  0
 52 53  1  0
 53 54  1  0
 54 55  1  0
 55 56  1  0
 56 57  1  0
 57 58  1  0
 58 59  1  0
 59 60  1  0
 60 61  1  0
 61 62  1  0
 58 63  1  1
 53 64  1  0
 64 65  1  0
 65 66  1  0
 66 67  1  0
 66 68  1  0
 53 69  1  0
 69 70  1  0
 70 71  1  6
 71 72  1  0
 72 73  1  0
 73 74  1  0
 74 75  1  0
 75 76  1  0
 76 77  1  0
 77 78  1  0
 78 79  1  0
 79 80  1  0
 80 81  1  0
 81 82  1  0
 82 83  1  1
 82 84  1  0
 70 85  1  0
 85 86  1  0
 86 87  1  0
 87 88  1  0
 33 19  1  0
 38 34  1  0
M  RAD  8  11   2  22   2  28   2  30   3  61   2  63   3  64   2  67   3
M  RAD  7  68   3  71   2  74   2  75   2  77   2  84   3  88   3
M  END
$$$$
