
     RDKit          3D

 29 30  0  0  0  0  0  0  0  0999 V2000
   -1.5774    1.8565   -1.7389 C   0  0  0  0  0  0  0  0  0  0  0  0
   -2.4168    1.5724   -0.5316 C   0  0  1  0  0  0  0  0  0  0  0  0
   -3.8547    1.8605   -0.8333 C   0  0  0  0  0  0  0  0  0  0  0  0
   -4.7993    1.5429    0.2817 C   0  0  2  0  0  0  0  0  0  0  0  0
   -5.3718    2.6512    0.8762 O   0  0  0  0  0  0  0  0  0  0  0  0
   -4.2219    0.6004    1.3132 C   0  0  2  0  0  0  0  0  0  0  0  0
   -3.2986    1.3553    2.0554 O   0  0  0  0  0  0  0  0  0  0  0  0
   -3.4409   -0.4469    0.5245 C   0  0  1  0  0  0  0  0  0  0  0  0
   -4.1433   -0.7224   -0.6600 O   0  0  0  0  0  0  0  0  0  0  0  0
   -2.1662    0.2507    0.1055 C   0  0  1  0  0  0  0  0  0  0  0  0
   -1.2558   -0.6040   -0.6025 N   0  0  0  0  0  0  0  0  0  0  0  0
   -0.2302   -1.0068    0.3342 C   0  0  1  0  0  0  0  0  0  0  0  0
   -0.1879   -2.4822    0.5852 C   0  0  0  0  0  0  0  0  0  0  0  0
   -1.5869   -2.9422    0.9217 C   0  0  0  0  0  0  0  0  0  0  0  0
    0.3404   -3.2180   -0.4588 O   0  0  0  0  0  0  0  0  0  0  0  0
    1.5806   -2.7116   -0.8132 C   0  0  1  0  0  0  0  0  0  0  0  0
    2.5124   -3.6880   -1.1074 O   0  0  0  0  0  0  0  0  0  0  0  0
    1.3883   -1.7419   -1.9731 C   0  0  1  0  0  0  0  0  0  0  0  0
    0.1888   -2.0735   -2.6099 O   0  0  0  0  0  0  0  0  0  0  0  0
    1.2598   -0.3123   -1.4612 C   0  0  2  0  0  0  0  0  0  0  0  0
    2.4369    0.3919   -1.7550 O   0  0  0  0  0  0  0  0  0  0  0  0
    1.1080   -0.3931    0.0533 C   0  0  1  0  0  0  0  0  0  0  0  0
    1.0816    0.9252    0.5285 O   0  0  0  0  0  0  0  0  0  0  0  0
    2.0507    1.0748    1.4140 O   0  0  0  0  0  0  0  0  0  0  0  0
    3.2393    1.4824    0.8169 C   0  0  0  0  0  3  0  0  0  0  0  0
    4.3380    0.4510    0.9624 C   0  0  0  0  0  3  0  0  0  0  0  0
    5.5816    1.0520    0.8577 O   0  0  0  0  0  0  0  0  0  0  0  0
    5.4895    2.4442    0.7145 C   0  0  0  0  0  3  0  0  0  0  0  0
    5.9556    2.8312   -0.6625 C   0  0  0  0  0  2  0  0  0  0  0  0
  2  1  1  6
  2  3  1  0
  3  4  1  0
  4  5  1  1
  4  6  1  0
  6  7  1  1
  6  8  1  0
  8  9  1  6
  8 10  1  0
 10 11  1  6
 12 11  1  6
 12 13  1  0
 13 14  1  0
 13 15  1  0
 15 16  1  0
 16 17  1  6
 16 18  1  0
 18 19  1  1
 18 20  1  0
 20 21  1  1
 20 22  1  0
 22 23  1  1
 23 24  1  0
 24 25  1  0
 25 26  1  0
 26 27  1  0
 27 28  1  0
 28 29  1  0
 10  2  1  0
 22 12  1  0
M  RAD  4  25   2  26   2  28   2  29   3
M  END
$$$$
