
     RDKit          3D

 25 24  0  0  0  0  0  0  0  0999 V2000
   -6.5164    2.3311    0.7522 C   0  0  0  0  0  0  0  0  0  0  0  0
   -5.3756    2.5332   -0.2532 C   0  0  0  0  0  0  0  0  0  0  0  0
   -4.1519    3.0119    0.4431 C   0  0  0  0  0  0  0  0  0  0  0  0
   -5.2349    1.2499   -0.9911 C   0  0  0  0  0  0  0  0  0  0  0  0
   -4.8992    0.0513   -0.2040 C   0  0  0  0  0  0  0  0  0  0  0  0
   -3.5846   -0.0189    0.4528 C   0  0  0  0  0  0  0  0  0  0  0  0
   -2.4067   -0.0873   -0.4503 C   0  0  1  0  0  0  0  0  0  0  0  0
   -2.3110    1.0809   -1.3604 C   0  0  0  0  0  0  0  0  0  0  0  0
   -1.1372   -0.3066    0.3108 C   0  0  0  0  0  3  0  0  0  0  0  0
   -1.1152   -1.5680    1.1048 C   0  0  0  0  0  0  0  0  0  0  0  0
   -1.2719   -2.8241    0.3581 C   0  0  0  0  0  0  0  0  0  0  0  0
   -0.2667   -3.1860   -0.6570 C   0  0  2  0  0  0  0  0  0  0  0  0
    1.1227   -3.3735   -0.2138 C   0  0  0  0  0  0  0  0  0  0  0  0
    1.8059   -2.2156    0.4029 C   0  0  0  0  0  3  0  0  0  0  0  0
    1.9888   -1.0652   -0.5436 C   0  0  0  0  0  0  0  0  0  0  0  0
    2.7250    0.0355    0.1777 C   0  0  0  0  0  0  0  0  0  0  0  0
    1.9636    0.5145    1.3893 C   0  0  0  0  0  0  0  0  0  0  0  0
    3.0940    1.1746   -0.7166 C   0  0  0  0  0  0  0  0  0  0  0  0
    3.8152    2.2276    0.0446 C   0  0  0  0  0  0  0  0  0  0  0  0
    5.0672    1.8964    0.6889 C   0  0  0  0  0  0  0  0  0  0  0  0
    5.7266    2.9573    1.4278 C   0  0  0  0  0  0  0  0  0  0  0  0
    5.4147    0.6360    0.9002 O   0  0  0  0  0  0  0  0  0  0  0  0
    5.5410   -0.1033   -0.2495 C   0  0  0  0  0  0  0  0  0  0  0  0
   -0.3564   -2.3194   -1.8829 C   0  0  0  0  0  0  0  0  0  0  0  0
    0.3632   -2.6322   -2.8245 O   0  0  0  0  0  0  0  0  0  0  0  0
  1  2  1  0
  2  3  1  0
  2  4  1  0
  4  5  1  0
  5  6  1  0
  6  7  1  0
  7  8  1  1
  7  9  1  0
  9 10  1  0
 10 11  1  0
 12 11  1  1
 12 13  1  0
 13 14  1  0
 14 15  1  0
 15 16  1  0
 16 17  1  0
 16 18  1  0
 18 19  1  0
 19 20  1  0
 20 21  1  0
 20 22  1  0
 22 23  1  0
 12 24  1  0
 24 25  2  0
M  RAD  2   9   2  14   2
M  END
$$$$
