
     RDKit          2D

 22 27  0  0  0  0  0  0  0  0999 V2000
    0.7500   -1.2990    0.0000 C   0  0  0  0  0  0  0  0  0  0  0  0
    1.5000    0.0000    0.0000 C   0  0  0  0  0  0  0  0  0  0  0  0
    0.7500    1.2990    0.0000 C   0  0  0  0  0  0  0  0  0  0  0  0
   -0.7500    1.2990    0.0000 C   0  0  0  0  0  0  0  0  0  0  0  0
   -1.5000    0.0000    0.0000 C   0  0  0  0  0  0  0  0  0  0  0  0
   -0.7500   -1.2990    0.0000 C   0  0  0  0  0  0  0  0  0  0  0  0
   -3.0912   -0.4826    0.0000 C   0  0  0  0  0  0  0  0  0  0  0  0
   -3.8412   -1.7816    0.0000 C   0  0  0  0  0  0  0  0  0  0  0  0
   -3.6844   -3.2734    0.0000 C   0  0  0  0  0  0  0  0  0  0  0  0
   -2.6807   -4.3881    0.0000 C   0  0  0  0  0  0  0  0  0  0  0  0
   -1.2135   -4.7000    0.0000 C   0  0  0  0  0  0  0  0  0  0  0  0
   -1.8332   -4.2509    0.0000 C   0  0  0  0  0  0  0  0  0  0  0  0
   -2.9617   -3.5975    0.0000 C   0  0  0  0  0  0  0  0  0  0  0  0
   -1.7488   -5.5634    0.0000 C   0  0  0  0  0  0  0  0  0  0  0  0
    0.9068   -5.3889    0.0000 C   0  0  0  0  0  0  0  0  0  0  0  0
    0.1568   -4.0899    0.0000 C   0  0  0  0  0  0  0  0  0  0  0  0
    2.4068   -5.3889    0.0000 N   0  0  0  0  0  0  0  0  0  0  0  0
    3.1568   -4.0899    0.0000 C   0  0  0  0  0  0  0  0  0  0  0  0
    1.7409   -3.5946    0.0000 C   0  0  0  0  0  0  0  0  0  0  0  0
    2.4068   -2.7908    0.0000 C   0  0  0  0  0  0  0  0  0  0  0  0
    0.9068   -2.7908    0.0000 C   0  0  0  0  0  0  0  0  0  0  0  0
    1.9105   -1.6761    0.0000 C   0  0  0  0  0  0  0  0  0  0  0  0
  1  2  2  0
  2  3  1  0
  3  4  2  0
  4  5  1  0
  5  6  2  0
  5  7  1  0
  7  8  1  0
  8  9  1  0
  9 10  1  0
 10 11  1  0
 11 12  2  0
 12 13  1  0
 10 14  1  0
 14 15  1  0
 15 16  2  0
 15 17  1  0
 17 18  1  0
 18 19  2  0
 18 20  1  0
 20 21  1  0
 21 22  1  0
  6  1  1  0
 21  1  1  0
  9 13  2  0
 16 11  1  0
 19 14  1  0
 21 16  1  0
M  END
$$$$
