
     RDKit          3D

 79 82  0  0  0  0  0  0  0  0999 V2000
  -20.3005   -0.2811   -2.4110 C   0  0  0  0  0  0  0  0  0  0  0  0
  -19.1694    0.4581   -1.7662 C   0  0  0  0  0  0  0  0  0  0  0  0
  -18.6952   -0.3094   -0.5380 C   0  0  0  0  0  0  0  0  0  0  0  0
  -19.5965    1.8512   -1.2994 C   0  0  0  0  0  0  0  0  0  0  0  0
  -18.3799    2.4998   -0.6676 C   0  0  0  0  0  0  0  0  0  0  0  0
  -17.8951    1.6777    0.5075 C   0  0  0  0  0  0  0  0  0  0  0  0
  -16.6961    2.2959    1.1496 C   0  0  1  0  0  0  0  0  0  0  0  0
  -16.1860    1.5117    2.3160 C   0  0  0  0  0  0  0  0  0  0  0  0
  -15.6053    2.6581    0.1806 C   0  0  0  0  0  3  0  0  0  0  0  0
  -15.0668    1.4927   -0.5911 C   0  0  0  0  0  3  0  0  0  0  0  0
  -13.6033    1.5986   -0.9188 C   0  0  0  0  0  0  0  0  0  0  0  0
  -12.8238    1.6861    0.3638 C   0  0  0  0  0  0  0  0  0  0  0  0
  -13.0703    0.4610    1.1842 C   0  0  0  0  0  0  0  0  0  0  0  0
  -13.3285    2.9055    1.1170 C   0  0  0  0  0  0  0  0  0  0  0  0
  -11.3424    1.9312    0.1017 C   0  0  0  0  0  0  0  0  0  0  0  0
  -11.2372    3.2462   -0.6531 C   0  0  0  0  0  0  0  0  0  0  0  0
  -10.7915    0.8642   -0.7858 C   0  0  0  0  0  0  0  0  0  0  0  0
   -9.3502    1.0111   -1.1031 C   0  0  0  0  0  0  0  0  0  0  0  0
  -11.2686   -0.5172   -0.5048 C   0  0  0  0  0  0  0  0  0  0  0  0
  -10.1914   -1.2985    0.1728 C   0  0  0  0  0  3  0  0  0  0  0  0
  -10.0903   -2.7196   -0.3335 C   0  0  0  0  0  0  0  0  0  0  0  0
   -9.6924   -3.5965    0.8355 C   0  0  0  0  0  2  0  0  0  0  0  0
   -9.1628   -2.8804   -1.3340 O   0  0  0  0  0  0  0  0  0  0  0  0
   -8.8180   -1.7613   -1.9702 N   0  0  0  0  0  0  0  0  0  0  0  0
   -7.8628   -1.0196   -1.2132 C   0  0  0  0  0  0  0  0  0  0  0  0
   -8.3987    0.1260   -0.4588 C   0  0  0  0  0  3  0  0  0  0  0  0
   -7.6255    0.6172    0.6853 C   0  0  0  0  0  0  0  0  0  0  0  0
   -8.3928    0.7163    1.9788 O   0  0  0  0  0  0  0  0  0  0  0  0
   -7.2535   -0.0019    1.8016 C   0  0  2  0  0  0  0  0  0  0  0  0
   -6.1321   -0.0902    2.7014 C   0  0  0  0  0  0  0  0  0  0  0  0
   -6.9767   -1.3231    2.3064 C   0  0  0  0  0  0  0  0  0  0  0  0
   -6.3489   -2.3001    1.3754 C   0  0  0  0  0  3  0  0  0  0  0  0
   -5.1069   -2.2388    0.9524 C   0  0  0  0  0  0  0  0  0  0  0  0
   -4.2240   -1.1346    1.4065 C   0  0  0  0  0  2  0  0  0  0  0  0
   -4.2661    0.0607    0.5004 C   0  0  0  0  0  0  0  0  0  0  0  0
   -4.3008   -0.3704   -0.9143 C   0  0  0  0  0  0  0  0  0  0  0  0
   -4.3446    0.6633   -1.9506 C   0  0  0  0  0  0  0  0  0  0  0  0
   -3.6412   -1.6439   -1.2073 C   0  0  0  0  0  0  0  0  0  0  0  0
   -2.1838   -1.7505   -0.8850 C   0  0  0  0  0  0  0  0  0  0  0  0
   -1.3377   -0.7552   -1.6146 C   0  0  0  0  0  0  0  0  0  0  0  0
   -1.7194    0.5397   -1.2879 O   0  0  0  0  0  0  0  0  0  0  0  0
    0.1079   -0.9525   -1.1964 C   0  0  0  0  0  0  0  0  0  0  0  0
    0.9792    0.0429   -1.9214 C   0  0  0  0  0  2  0  0  0  0  0  0
    1.3473    1.1579   -0.9747 C   0  0  0  0  0  0  0  0  0  0  0  0
    1.2528    0.6500    0.4378 C   0  0  0  0  0  3  0  0  0  0  0  0
    1.6070    1.7037    1.4390 C   0  0  0  0  0  0  0  0  0  0  0  0
    2.0947   -0.6012    0.5598 C   0  0  0  0  0  0  0  0  0  0  0  0
    2.0229   -1.1466    1.9765 C   0  0  0  0  0  0  0  0  0  0  0  0
    3.5019   -0.3765    0.1075 C   0  0  0  0  0  3  0  0  0  0  0  0
    4.1724    0.6891    0.9248 C   0  0  0  0  0  0  0  0  0  0  0  0
    5.5581    0.8780    0.4486 C   0  0  0  0  0  0  0  0  0  0  0  0
    6.0145    0.1563   -0.5524 C   0  0  0  0  0  0  0  0  0  0  0  0
    6.0528   -0.8464   -1.6510 C   0  0  0  0  0  3  0  0  0  0  0  0
    7.2644   -0.0588   -1.3975 C   0  0  0  0  0  3  0  0  0  0  0  0
    8.3938   -0.6681   -0.6140 C   0  0  0  0  0  3  0  0  0  0  0  0
    7.9122   -1.6107    0.4619 C   0  0  0  0  0  0  0  0  0  0  0  0
    9.1154   -2.1692    1.1862 C   0  0  0  0  0  0  0  0  0  0  0  0
    9.9750   -2.9069    0.1881 C   0  0  0  0  0  0  0  0  0  0  0  0
   11.4162   -3.5723    1.0749 S   0  0  0  0  0  0  0  0  0  0  0  0
   10.5118   -1.7838   -1.1183 S   0  0  0  0  0  0  0  0  0  0  0  0
   11.6246   -0.5274   -0.4326 C   0  0  0  0  0  3  0  0  0  0  0  0
   12.0872    0.4260   -1.4964 C   0  0  0  0  0  0  0  0  0  0  0  0
   13.0055    1.4508   -0.8969 C   0  0  0  0  0  0  0  0  0  0  0  0
   14.2346    0.8093   -0.2695 C   0  0  1  0  0  0  0  0  0  0  0  0
   13.8029   -0.1436    0.8280 C   0  0  0  0  0  2  0  0  0  0  0  0
   15.0161    0.0259   -1.3052 C   0  0  0  0  0  0  0  0  0  0  0  0
   16.2254   -0.5905   -0.6442 C   0  0  0  0  0  0  0  0  0  0  0  0
   17.0733    0.5416   -0.0846 C   0  0  0  0  0  0  0  0  0  0  0  0
   16.2728    1.3401    0.9324 C   0  0  0  0  0  0  0  0  0  0  0  0
   17.1258    2.4538    1.4750 C   0  0  0  0  0  3  0  0  0  0  0  0
   16.3770    3.2785    2.4913 C   0  0  0  0  0  0  0  0  0  0  0  0
   18.3105   -0.0272    0.5957 C   0  0  0  0  0  0  0  0  0  0  0  0
   19.1186    1.1331    1.1220 C   0  0  2  0  0  0  0  0  0  0  0  0
   19.4967    1.9969   -0.0677 C   0  0  0  0  0  0  0  0  0  0  0  0
   20.4077    0.6713    1.7570 C   0  0  0  0  0  3  0  0  0  0  0  0
   21.2208   -0.0587    0.7099 C   0  0  0  0  0  0  0  0  0  0  0  0
   20.4095   -1.2396    0.2258 C   0  0  0  0  0  3  0  0  0  0  0  0
   21.1557   -2.0263   -0.8282 C   0  0  0  0  0  3  0  0  0  0  0  0
   20.2120   -2.9791   -1.5167 C   0  0  0  0  0  0  0  0  0  0  0  0
  1  2  1  0
  2  3  1  0
  2  4  1  0
  4  5  1  0
  5  6  1  0
  6  7  1  0
  7  8  1  1
  7  9  1  0
  9 10  1  0
 10 11  1  0
 11 12  1  0
 12 13  1  0
 12 14  1  0
 12 15  1  0
 15 16  1  0
 15 17  1  0
 17 18  1  0
 17 19  1  0
 19 20  1  0
 20 21  1  0
 21 22  1  0
 21 23  1  0
 23 24  1  0
 24 25  1  0
 25 26  1  0
 26 27  1  0
 27 28  1  0
 28 29  1  0
 29 30  1  1
 30 31  1  0
 31 32  1  0
 32 33  2  3
 33 34  1  0
 34 35  1  0
 35 36  1  0
 36 37  1  0
 36 38  1  0
 38 39  1  0
 39 40  1  0
 40 41  1  0
 40 42  1  0
 42 43  1  0
 43 44  1  0
 44 45  1  0
 45 46  1  0
 45 47  1  0
 47 48  1  0
 47 49  1  0
 49 50  1  0
 50 51  1  0
 51 52  2  3
 52 53  1  0
 52 54  1  0
 54 55  1  0
 55 56  1  0
 56 57  1  0
 57 58  1  0
 58 59  1  0
 58 60  1  0
 60 61  1  0
 61 62  1  0
 62 63  1  0
 63 64  1  0
 64 65  1  1
 64 66  1  0
 66 67  1  0
 67 68  1  0
 68 69  1  0
 69 70  1  0
 70 71  1  0
 68 72  1  0
 72 73  1  0
 73 74  1  6
 73 75  1  0
 75 76  1  0
 76 77  1  0
 77 78  1  0
 78 79  1  0
 26 18  1  0
 29 27  1  0
 31 29  1  0
 54 53  1  0
M  RAD  8   9   2  10   2  20   2  22   3  26   2  32   2  34   3  43   3
M  RAD  8  45   2  49   2  53   2  54   2  55   2  61   2  65   3  70   2
M  RAD  3  75   2  77   2  78   2
M  END
$$$$
