
     RDKit          3D

 37 37  0  0  0  0  0  0  0  0999 V2000
    5.5728   -3.7204   -1.5113 C   0  0  0  0  0  0  0  0  0  0  0  0
    6.3257   -2.6035   -2.1207 C   0  0  0  0  0  0  0  0  0  0  0  0
    5.9993   -1.3590   -2.0026 N   0  0  0  0  0  0  0  0  0  0  0  0
    4.8241   -1.0485   -1.2253 C   0  0  0  0  0  0  0  0  0  0  0  0
    3.7748   -0.6768   -1.8094 O   0  0  0  0  0  0  0  0  0  0  0  0
    4.9556   -1.1952    0.2046 C   0  0  0  0  0  0  0  0  0  0  0  0
    4.0342   -0.9738    1.0957 C   0  0  0  0  0  0  0  0  0  0  0  0
    2.6957   -0.5359    0.8156 C   0  0  0  0  0  0  0  0  0  0  0  0
    1.8413   -1.4131   -0.0184 C   0  0  0  0  0  0  0  0  0  0  0  0
    0.5457   -0.8341   -0.2003 N   0  0  0  0  0  0  0  0  0  0  0  0
   -0.3644   -0.7103    0.9324 C   0  0  0  0  0  0  0  0  0  0  0  0
    0.1294   -0.3777   -1.4776 C   0  0  0  0  0  0  0  0  0  0  0  0
   -1.1179   -0.1550   -1.8261 C   0  0  0  0  0  0  0  0  0  0  0  0
   -2.0776    0.2443   -2.7865 C   0  0  0  0  0  0  0  0  0  0  0  0
   -2.5521   -0.1050   -1.5986 C   0  0  0  0  0  0  0  0  0  0  0  0
   -3.7097   -0.2924   -0.7222 C   0  0  0  0  0  0  0  0  0  0  0  0
   -3.5684   -0.6924    0.4563 O   0  0  0  0  0  0  0  0  0  0  0  0
   -5.0364   -0.0310   -1.1672 N   0  0  0  0  0  0  0  0  0  0  0  0
   -6.1364   -0.2292   -0.2809 C   0  0  1  0  0  0  0  0  0  0  0  0
   -7.3504    0.4894   -0.8695 C   0  0  0  0  0  0  0  0  0  0  0  0
   -8.5581    0.3330   -0.0038 C   0  0  0  0  0  0  0  0  0  0  0  0
   -8.2784    0.9021    1.3301 C   0  0  0  0  0  0  0  0  0  0  0  0
   -7.1710    1.4548    1.5303 O   0  0  0  0  0  0  0  0  0  0  0  0
   -9.2741    0.8035    2.3372 N   0  0  0  0  0  0  0  0  0  0  0  0
   -6.5080   -1.6344   -0.0800 C   0  0  0  0  0  0  0  0  0  0  0  0
   -5.9009   -2.5143   -0.6379 O   0  0  0  0  0  0  0  0  0  0  0  0
   -7.6338   -1.9801    0.8110 C   0  0  0  0  0  2  0  0  0  0  0  0
    2.3977    0.8228    0.8403 N   0  0  0  0  0  4  0  0  0  0  0  0
    1.9424    1.4302   -0.1806 C   0  0  0  0  0  0  0  0  0  0  0  0
    2.5993    1.5951    2.0419 C   0  0  2  0  0  0  0  0  0  0  0  0
    2.2232    2.9434    1.8450 O   0  0  0  0  0  0  0  0  0  0  0  0
    4.0438    1.6519    2.2191 N   0  0  0  0  0  3  0  0  0  0  0  0
    4.6757    2.4044    1.3998 C   0  0  0  0  0  0  0  0  0  0  0  0
    6.0695    2.5979    1.3995 N   0  0  0  0  0  2  0  0  0  0  0  0
    6.6311    1.9862    2.5610 C   0  0  0  0  0  0  0  0  0  0  0  0
    5.9131    1.6930    3.5052 O   0  0  0  0  0  0  0  0  0  0  0  0
    8.0432    1.7305    2.5844 N   0  0  0  0  0  1  0  0  0  0  0  0
  1  2  1  0
  2  3  2  3
  3  4  1  0
  4  5  2  0
  4  6  1  0
  6  7  2  3
  7  8  1  0
  8  9  1  0
  9 10  1  0
 10 11  1  0
 10 12  1  0
 12 13  2  3
 13 14  1  0
 14 15  2  0
 15 16  1  0
 16 17  2  0
 16 18  1  0
 18 19  1  0
 19 20  1  6
 20 21  1  0
 21 22  1  0
 22 23  2  0
 22 24  1  0
 19 25  1  0
 25 26  2  0
 25 27  1  0
  8 28  1  0
 28 29  2  0
 28 30  1  0
 30 31  1  6
 30 32  1  0
 32 33  2  3
 33 34  1  0
 34 35  1  0
 35 36  2  0
 35 37  1  0
 15 13  1  0
M  CHG  4  28   1  32   1  34   1  37   1
M  RAD  4  27   3  32   2  34   3  37   2
M  END
$$$$
