
     RDKit          3D

 55 54  0  0  0  0  0  0  0  0999 V2000
  -10.5690    4.6254   -3.4392 O   0  0  0  0  0  0  0  0  0  0  0  0
   -9.2873    4.2684   -3.8625 C   0  0  0  0  0  0  0  0  0  0  0  0
   -8.9443    2.8693   -3.5725 C   0  0  0  0  0  0  0  0  0  0  0  0
   -7.9210    2.5783   -2.8090 C   0  0  0  0  0  0  0  0  0  0  0  0
   -7.5118    1.2328   -2.4710 C   0  0  0  0  0  0  0  0  0  0  0  0
   -6.4477    1.0815   -1.6817 C   0  0  0  0  0  0  0  0  0  0  0  0
   -6.0922   -0.2633   -1.3828 N   0  0  0  0  0  0  0  0  0  0  0  0
   -7.1732   -1.2072   -1.1195 C   0  0  0  0  0  3  0  0  0  0  0  0
   -6.7034   -2.3828   -0.5688 O   0  0  0  0  0  0  0  0  0  0  0  0
   -7.5403   -2.9239    0.3558 C   0  0  2  0  0  0  0  0  0  0  0  0
   -6.9927   -4.1988    0.8962 C   0  0  0  0  0  0  0  0  0  0  0  0
   -8.8496   -2.9897   -0.0083 O   0  0  0  0  0  0  0  0  0  0  0  0
   -9.3866   -1.7180   -0.2609 C   0  0  1  0  0  0  0  0  0  0  0  0
  -10.8305   -1.9293   -0.7378 C   0  0  0  0  0  2  0  0  0  0  0  0
   -9.4466   -0.7811    1.2677 S   0  0  0  0  0  3  0  0  0  0  0  0
   -7.9152   -0.5745    1.9667 N   0  0  0  0  0  0  0  0  0  0  0  0
  -10.3943    0.6866    1.1064 C   0  0  0  0  0  3  0  0  0  0  0  0
  -11.6214    0.4050    0.5551 O   0  0  0  0  0  0  0  0  0  0  0  0
   -5.7138    2.2236   -1.1740 C   0  0  0  0  0  0  0  0  0  0  0  0
   -4.6725    2.0303   -0.3996 C   0  0  0  0  0  0  0  0  0  0  0  0
   -4.2903    0.7024   -0.0773 N   0  0  0  0  0  3  0  0  0  0  0  0
   -3.3461    0.1502   -0.9990 C   0  0  0  0  0  0  0  0  0  0  0  0
   -3.7809    0.7728    1.2725 C   0  0  0  0  0  0  0  0  0  0  0  0
   -2.4816    0.5696    1.4244 C   0  0  0  0  0  0  0  0  0  0  0  0
   -1.2064    0.3018    1.4413 C   0  0  0  0  0  0  0  0  0  0  0  0
   -0.7865   -1.0760    1.2348 C   0  0  0  0  0  0  0  0  0  0  0  0
   -1.7928   -2.1456    0.9607 C   0  0  0  0  0  0  0  0  0  0  0  0
    0.5025   -1.3524    1.2961 C   0  0  0  0  0  0  0  0  0  0  0  0
    1.4452   -0.2883    1.5637 C   0  0  0  0  0  0  0  0  0  0  0  0
    2.7272   -0.5637    1.6244 C   0  0  0  0  0  0  0  0  0  0  0  0
    3.1473   -1.8664    1.4306 O   0  0  0  0  0  0  0  0  0  0  0  0
    3.9214   -2.3828    2.4198 O   0  0  0  0  0  0  0  0  0  0  0  0
    5.0909   -2.8147    1.7518 C   0  0  0  0  0  0  0  0  0  0  0  0
    6.0377   -3.4148    2.7924 C   0  0  0  0  0  0  0  0  0  0  0  0
    5.6985   -1.6501    1.2506 O   0  0  0  0  0  0  0  0  0  0  0  0
    6.8770   -1.7076    0.5321 C   0  0  0  0  0  0  0  0  0  0  0  0
    6.9830   -1.1514   -0.6451 C   0  0  0  0  0  0  0  0  0  0  0  0
    5.9046   -0.4901   -1.1940 O   0  0  0  0  0  0  0  0  0  0  0  0
    8.2475   -1.2230   -1.3955 C   0  0  0  0  0  0  0  0  0  0  0  0
    9.1920   -1.9440   -0.6353 O   0  0  0  0  0  0  0  0  0  0  0  0
    9.5421   -1.4660    0.6137 C   0  0  0  0  0  0  0  0  0  0  0  0
   10.4681   -0.5903    0.8731 C   0  0  0  0  0  0  0  0  0  0  0  0
   11.2697   -0.0014   -0.2209 C   0  0  0  0  0  0  0  0  0  0  0  0
   10.8989   -0.4988   -1.4614 O   0  0  0  0  0  0  0  0  0  0  0  0
   11.6908    0.0978   -2.4547 C   0  0  0  0  0  0  0  0  0  0  0  0
   11.3412   -0.3967   -3.8261 C   0  0  0  0  0  0  0  0  0  0  0  0
   13.0701   -0.2226   -2.1350 N   0  0  0  0  0  0  0  0  0  0  0  0
    3.6996    0.3908    1.8756 O   0  0  0  0  0  0  0  0  0  0  0  0
    3.4526    1.7792    1.7564 C   0  0  0  0  0  0  0  0  0  0  0  0
    2.3464    2.2274    2.6896 C   0  0  0  0  0  0  0  0  0  0  0  0
    4.6464    2.5842    2.0836 C   0  0  0  0  0  0  0  0  0  0  0  0
    5.5446    2.8807    1.1794 C   0  0  0  0  0  0  0  0  0  0  0  0
    6.6730    3.6693    1.5929 N   0  0  0  0  0  1  0  0  0  0  0  0
    5.4273    2.4462   -0.1760 N   0  0  0  0  0  3  0  0  0  0  0  0
    5.8523    3.2263   -1.0998 N   0  0  0  0  0  2  0  0  0  0  0  0
  1  2  1  0
  2  3  1  0
  3  4  2  3
  4  5  1  0
  5  6  2  3
  6  7  1  0
  7  8  1  0
  8  9  1  0
  9 10  1  0
 10 11  1  6
 10 12  1  0
 12 13  1  0
 13 14  1  1
 13 15  1  0
 15 16  1  0
 15 17  1  0
 17 18  1  0
  6 19  1  0
 19 20  2  3
 20 21  1  0
 21 22  1  0
 21 23  1  0
 23 24  2  0
 24 25  2  0
 25 26  1  0
 26 27  1  0
 26 28  2  3
 28 29  1  0
 29 30  2  3
 30 31  1  0
 31 32  1  0
 32 33  1  0
 33 34  1  0
 33 35  1  0
 35 36  1  0
 36 37  2  3
 37 38  1  0
 37 39  1  0
 39 40  1  0
 40 41  1  0
 41 42  2  3
 42 43  1  0
 43 44  1  0
 44 45  1  0
 45 46  1  0
 45 47  1  0
 30 48  1  0
 48 49  1  0
 49 50  1  0
 49 51  1  0
 51 52  2  3
 52 53  1  0
 52 54  1  0
 54 55  2  0
M  CHG  5  15   1  21   1  53   1  54   1  55  -1
M  RAD  6   8   2  14   3  17   2  21   2  53   2  54   2
M  END
$$$$
