
     RDKit          2D

 79 79  0  0  0  0  0  0  0  0999 V2000
   21.1160    3.8971    0.0000 C   0  0  0  0  0  0  0  0  0  0  0  0
   20.3660    2.5981    0.0000 C   0  0  0  0  0  0  0  0  0  0  0  0
   21.1160    1.2990    0.0000 C   0  0  0  0  0  0  0  0  0  0  0  0
   18.8660    2.5981    0.0000 C   0  0  0  0  0  0  0  0  0  0  0  0
   18.1160    1.2990    0.0000 C   0  0  0  0  0  0  0  0  0  0  0  0
   16.6160    1.2990    0.0000 C   0  0  0  0  0  0  0  0  0  0  0  0
   15.8660    0.0000    0.0000 C   0  0  0  0  0  0  0  0  0  0  0  0
   16.6160   -1.2990    0.0000 C   0  0  0  0  0  0  0  0  0  0  0  0
   14.3660    0.0000    0.0000 C   0  0  0  0  0  3  0  0  0  0  0  0
   13.6160    1.2990    0.0000 C   0  0  0  0  0  0  0  0  0  0  0  0
   12.1160    1.2990    0.0000 C   0  0  0  0  0  0  0  0  0  0  0  0
   11.3660    2.5981    0.0000 C   0  0  0  0  0  0  0  0  0  0  0  0
   12.1160    3.8971    0.0000 C   0  0  0  0  0  0  0  0  0  0  0  0
    9.8660    2.5981    0.0000 C   0  0  0  0  0  3  0  0  0  0  0  0
    9.1160    1.2990    0.0000 C   0  0  0  0  0  0  0  0  0  0  0  0
    7.6160    1.2990    0.0000 C   0  0  0  0  0  0  0  0  0  0  0  0
    6.8660    2.5981    0.0000 C   0  0  0  0  0  0  0  0  0  0  0  0
    7.6160    3.8971    0.0000 C   0  0  0  0  0  0  0  0  0  0  0  0
    6.8660    5.1962    0.0000 C   0  0  0  0  0  0  0  0  0  0  0  0
    7.6160    6.4952    0.0000 C   0  0  0  0  0  0  0  0  0  0  0  0
    6.8660    7.7942    0.0000 O   0  0  0  0  0  0  0  0  0  0  0  0
    6.8660    0.0000    0.0000 C   0  0  0  0  0  3  0  0  0  0  0  0
    5.3660    0.0000    0.0000 C   0  0  0  0  0  0  0  0  0  0  0  0
    4.6160   -1.2990    0.0000 C   0  0  0  0  0  0  0  0  0  0  0  0
    5.3660   -2.5981    0.0000 C   0  0  0  0  0  2  0  0  0  0  0  0
    3.1160   -1.2990    0.0000 O   0  0  0  0  0  0  0  0  0  0  0  0
    2.3660    0.0000    0.0000 N   0  0  0  0  0  0  0  0  0  0  0  0
    0.8660    0.0000    0.0000 C   0  0  0  0  0  0  0  0  0  0  0  0
   -0.4330    0.7500    0.0000 C   0  0  0  0  0  0  0  0  0  0  0  0
   -1.1830    2.0490    0.0000 C   0  0  0  0  0  2  0  0  0  0  0  0
   -0.4330   -0.7500    0.0000 C   0  0  0  0  0  0  0  0  0  0  0  0
   -1.1830   -2.0490    0.0000 C   0  0  0  0  0  0  0  0  0  0  0  0
   -2.6830   -2.0490    0.0000 C   0  0  0  0  0  0  0  0  0  0  0  0
   -0.4330   -3.3481    0.0000 C   0  0  0  0  0  0  0  0  0  0  0  0
   -1.1830   -4.6471    0.0000 C   0  0  0  0  0  2  0  0  0  0  0  0
    1.0670   -3.3481    0.0000 C   0  0  0  0  0  3  0  0  0  0  0  0
    1.8170   -4.6471    0.0000 C   0  0  0  0  0  0  0  0  0  0  0  0
    3.3170   -4.6471    0.0000 C   0  0  0  0  0  0  0  0  0  0  0  0
    4.0670   -5.9462    0.0000 C   0  0  0  0  0  0  0  0  0  0  0  0
    4.0670   -3.3481    0.0000 C   0  0  0  0  0  3  0  0  0  0  0  0
    5.5670   -3.3481    0.0000 C   0  0  0  0  0  0  0  0  0  0  0  0
    6.3170   -4.6471    0.0000 C   0  0  0  0  0  0  0  0  0  0  0  0
    5.5670   -5.9462    0.0000 C   0  0  0  0  0  2  0  0  0  0  0  0
    7.8170   -4.6471    0.0000 C   0  0  0  0  0  0  0  0  0  0  0  0
    8.5670   -5.9462    0.0000 C   0  0  0  0  0  2  0  0  0  0  0  0
    8.5670   -3.3481    0.0000 C   0  0  0  0  0  0  0  0  0  0  0  0
   10.0670   -3.3481    0.0000 C   0  0  0  0  0  0  0  0  0  0  0  0
   10.8170   -2.0490    0.0000 C   0  0  0  0  0  2  0  0  0  0  0  0
   10.8170   -4.6471    0.0000 C   0  0  0  0  0  0  0  0  0  0  0  0
   12.3170   -4.6471    0.0000 C   0  0  0  0  0  0  0  0  0  0  0  0
   13.0670   -5.9462    0.0000 C   0  0  0  0  0  0  0  0  0  0  0  0
   14.5670   -5.9462    0.0000 C   0  0  0  0  0  2  0  0  0  0  0  0
   12.3170   -7.2452    0.0000 C   0  0  0  0  0  3  0  0  0  0  0  0
   10.8170   -7.2452    0.0000 C   0  0  0  0  0  3  0  0  0  0  0  0
   10.0670   -8.5442    0.0000 C   0  0  0  0  0  3  0  0  0  0  0  0
    8.5670   -8.5442    0.0000 C   0  0  0  0  0  0  0  0  0  0  0  0
    7.8170   -7.2452    0.0000 C   0  0  0  0  0  2  0  0  0  0  0  0
    7.8170   -9.8433    0.0000 C   0  0  0  0  0  0  0  0  0  0  0  0
    6.3170   -9.8433    0.0000 C   0  0  0  0  0  0  0  0  0  0  0  0
    5.5670  -11.1423    0.0000 C   0  0  0  0  0  2  0  0  0  0  0  0
    5.5670   -8.5442    0.0000 C   0  0  0  0  0  3  0  0  0  0  0  0
    4.0670   -8.5442    0.0000 C   0  0  0  0  0  0  0  0  0  0  0  0
    3.3170   -7.2452    0.0000 C   0  0  0  0  0  0  0  0  0  0  0  0
    1.8170   -7.2452    0.0000 C   0  0  0  0  0  0  0  0  0  0  0  0
    1.0670   -5.9462    0.0000 C   0  0  0  0  0  0  0  0  0  0  0  0
    1.0670   -8.5442    0.0000 C   0  0  0  0  0  0  0  0  0  0  0  0
   -0.4330   -8.5442    0.0000 C   0  0  0  0  0  0  0  0  0  0  0  0
   -1.1830   -9.8433    0.0000 C   0  0  0  0  0  0  0  0  0  0  0  0
   -2.6830   -9.8433    0.0000 C   0  0  0  0  0  0  0  0  0  0  0  0
   -3.4330   -8.5442    0.0000 C   0  0  0  0  0  0  0  0  0  0  0  0
   -4.9330   -8.5442    0.0000 N   0  0  0  0  0  0  0  0  0  0  0  0
   -5.6830   -7.2452    0.0000 C   0  0  0  0  0  0  0  0  0  0  0  0
   -7.1830   -7.2452    0.0000 C   0  0  0  0  0  2  0  0  0  0  0  0
   -3.4330  -11.1423    0.0000 C   0  0  0  0  0  0  0  0  0  0  0  0
   -4.9330  -11.1423    0.0000 C   0  0  0  0  0  2  0  0  0  0  0  0
   -2.6830  -12.4413    0.0000 C   0  0  0  0  0  3  0  0  0  0  0  0
   -3.4330  -13.7404    0.0000 C   0  0  0  0  0  0  0  0  0  0  0  0
   -2.6830  -15.0394    0.0000 C   0  0  0  0  0  2  0  0  0  0  0  0
   -4.9330  -13.7404    0.0000 C   0  0  0  0  0  2  0  0  0  0  0  0
  1  2  1  0
  2  3  1  0
  2  4  1  0
  4  5  1  0
  5  6  1  0
  6  7  1  0
  7  8  1  1
  7  9  1  0
  9 10  1  0
 10 11  1  0
 11 12  1  0
 12 13  1  6
 12 14  1  0
 14 15  1  0
 16 15  1  6
 16 17  1  0
 17 18  1  0
 18 19  1  0
 19 20  1  0
 20 21  1  0
 16 22  1  0
 22 23  1  0
 23 24  1  0
 24 25  1  1
 24 26  1  0
 26 27  1  0
 28 27  1  1
 28 29  1  0
 29 30  1  6
 29 31  1  0
 31 32  1  1
 32 33  1  6
 32 34  1  0
 34 35  1  6
 34 36  1  0
 36 37  1  0
 37 38  1  0
 38 39  1  6
 38 40  1  0
 40 41  1  0
 41 42  1  0
 42 43  1  6
 42 44  1  0
 44 45  1  6
 44 46  1  0
 46 47  1  0
 47 48  1  1
 47 49  1  0
 49 50  1  0
 50 51  1  0
 51 52  1  1
 51 53  1  0
 53 54  1  0
 54 55  1  0
 55 56  1  0
 56 57  1  6
 56 58  1  0
 58 59  1  0
 59 60  1  1
 59 61  1  0
 61 62  1  0
 62 63  1  0
 63 64  1  0
 64 65  1  0
 64 66  1  0
 66 67  1  0
 67 68  1  0
 69 68  1  6
 69 70  1  0
 70 71  1  0
 71 72  1  0
 72 73  1  0
 69 74  1  0
 74 75  1  6
 74 76  1  0
 76 77  1  0
 77 78  1  0
 77 79  1  0
 31 28  1  0
M  RAD  8   9   2  14   2  22   2  25   3  30   3  35   3  36   2  40   2
M  RAD  8  43   3  45   3  48   3  52   3  53   2  54   2  55   2  57   3
M  RAD  7  60   3  61   2  73   3  75   3  76   2  78   3  79   3
M  END
$$$$
