
     RDKit          3D

 13 12  0  0  0  0  0  0  0  0999 V2000
    4.4515    1.3170    0.5807 C   0  0  0  0  0  0  0  0  0  0  0  0
    3.5315    0.2585    0.5197 O   0  0  0  0  0  0  0  0  0  0  0  0
    2.8379    0.4359   -0.6876 C   0  0  0  0  0  3  0  0  0  0  0  0
    1.8166   -0.4837   -0.8431 O   0  0  0  0  0  0  0  0  0  0  0  0
    0.9386   -0.5032    0.2527 C   0  0  2  0  0  0  0  0  0  0  0  0
    1.0598   -1.8890    0.8773 C   0  0  0  0  0  0  0  0  0  0  0  0
    0.6060   -2.8814   -0.1700 C   0  0  0  0  0  2  0  0  0  0  0  0
   -0.4595   -0.4723   -0.3536 C   0  0  0  0  0  3  0  0  0  0  0  0
   -1.2362    0.6433    0.1012 N   0  0  0  0  0  0  0  0  0  0  0  0
   -2.2783    0.8676   -0.8956 C   0  0  0  0  0  3  0  0  0  0  0  0
   -3.6369    0.8047   -0.2277 C   0  0  0  0  0  3  0  0  0  0  0  0
   -3.5615   -0.2238    1.6254 I   0  0  0  0  0  0  0  0  0  0  0  0
   -4.0695    2.1265   -0.0708 O   0  0  0  0  0  0  0  0  0  0  0  0
  1  2  1  0
  2  3  1  0
  3  4  1  0
  4  5  1  0
  5  6  1  6
  6  7  1  0
  5  8  1  0
  8  9  1  0
  9 10  1  0
 10 11  1  0
 11 12  1  0
 11 13  1  0
M  RAD  5   3   2   7   3   8   2  10   2  11   2
M  END
$$$$
