
     RDKit          3D

 23 22  0  0  0  0  0  0  0  0999 V2000
    7.0574    1.4638    0.9155 C   0  0  0  0  0  0  0  0  0  0  0  0
    6.5143    0.3134    0.1117 C   0  0  0  0  0  0  0  0  0  0  0  0
    7.6063   -0.3988   -0.6490 C   0  0  0  0  0  0  0  0  0  0  0  0
    5.4638    0.8263   -0.8565 C   0  0  0  0  0  0  0  0  0  0  0  0
    4.3400    1.4769   -0.0713 C   0  0  0  0  0  0  0  0  0  0  0  0
    3.7636    0.3997    0.8413 C   0  0  0  0  0  0  0  0  0  0  0  0
    3.2479   -0.7405   -0.0719 C   0  0  1  0  0  0  0  0  0  0  0  0
    2.6940   -1.7628    0.9301 C   0  0  0  0  0  0  0  0  0  0  0  0
    2.0634   -0.1234   -0.7883 C   0  0  0  0  0  3  0  0  0  0  0  0
    1.0148    0.1747    0.2587 C   0  0  0  0  0  0  0  0  0  0  0  0
    0.4207   -1.1448    0.6985 C   0  0  0  0  0  0  0  0  0  0  0  0
   -0.2759   -1.7484   -0.4940 C   0  0  2  0  0  0  0  0  0  0  0  0
    0.6824   -1.9634   -1.6229 C   0  0  0  0  0  0  0  0  0  0  0  0
   -1.3577   -0.7814   -0.9295 C   0  0  0  0  0  0  0  0  0  0  0  0
   -2.2996   -0.6229    0.2521 C   0  0  0  0  0  0  0  0  0  0  0  0
   -2.9171   -1.9516    0.6454 C   0  0  0  0  0  0  0  0  0  0  0  0
   -3.4438    0.2687   -0.2125 C   0  0  0  0  0  0  0  0  0  0  0  0
   -4.4112    0.4553    0.9361 C   0  0  0  0  0  0  0  0  0  0  0  0
   -5.5524    1.3385    0.4891 C   0  0  0  0  0  0  0  0  0  0  0  0
   -6.4843    1.4825    1.6930 C   0  0  0  0  0  0  0  0  0  0  0  0
   -5.0543    2.7213    0.1266 C   0  0  0  0  0  0  0  0  0  0  0  0
   -6.2746    0.7780   -0.7079 C   0  0  0  0  0  0  0  0  0  0  0  0
   -6.7977   -0.4611   -0.4102 F   0  0  0  0  0  0  0  0  0  0  0  0
  1  2  1  0
  2  3  1  0
  2  4  1  0
  4  5  1  0
  5  6  1  0
  6  7  1  0
  7  8  1  1
  7  9  1  0
  9 10  1  0
 10 11  1  0
 11 12  1  0
 12 13  1  6
 12 14  1  0
 14 15  1  0
 15 16  1  0
 15 17  1  0
 17 18  1  0
 18 19  1  0
 19 20  1  0
 19 21  1  0
 19 22  1  0
 22 23  1  0
M  RAD  1   9   2
M  END
$$$$
