
     RDKit          3D

 32 31  0  0  0  0  0  0  0  0999 V2000
    6.6353   -1.9588    0.6498 C   0  0  0  0  0  0  0  0  0  0  0  0
    7.4702   -1.5809   -0.5582 C   0  0  0  0  0  0  0  0  0  0  0  0
    8.9410   -1.7599   -0.2542 C   0  0  0  0  0  0  0  0  0  0  0  0
    7.2368   -0.1288   -0.9155 C   0  0  0  0  0  0  0  0  0  0  0  0
    5.7532    0.0841   -1.2402 C   0  0  0  0  0  0  0  0  0  0  0  0
    5.5245    1.5358   -1.5965 C   0  0  0  0  0  0  0  0  0  0  0  0
    5.9388    2.3628   -0.3809 C   0  0  1  0  0  0  0  0  0  0  0  0
    5.6925    3.8221   -0.7821 C   0  0  0  0  0  0  0  0  0  0  0  0
    5.0852    2.0581    0.8073 C   0  0  0  0  0  0  0  0  0  0  0  0
    3.6171    2.3530    0.5495 C   0  0  0  0  0  0  0  0  0  0  0  0
    2.7995    2.0314    1.7708 C   0  0  0  0  0  0  0  0  0  0  0  0
    1.3395    2.3261    1.5106 C   0  0  0  0  0  3  0  0  0  0  0  0
    0.7811    1.5209    0.3648 C   0  0  0  0  0  2  0  0  0  0  0  0
   -0.0871    0.3973    0.8885 C   0  0  0  0  0  0  0  0  0  0  0  0
   -1.4956    0.9026    1.0877 C   0  0  0  0  0  3  0  0  0  0  0  0
   -2.1151    1.4107   -0.1906 C   0  0  0  0  0  3  0  0  0  0  0  0
   -3.1669    0.4364   -0.6707 C   0  0  0  0  0  2  0  0  0  0  0  0
   -4.2308    0.3025    0.3713 C   0  0  1  0  0  0  0  0  0  0  0  0
   -4.1541   -1.0159    1.0709 C   0  0  0  0  0  3  0  0  0  0  0  0
   -4.3240   -2.1360    0.0982 C   0  0  2  0  0  0  0  0  0  0  0  0
   -5.6252   -2.1266   -0.6367 C   0  0  0  0  0  0  0  0  0  0  0  0
   -3.9272   -3.4778    0.6229 C   0  0  0  0  0  0  0  0  0  0  0  0
   -2.4535   -3.4416    1.0152 C   0  0  2  0  0  0  0  0  0  0  0  0
   -1.5972   -3.0981   -0.2013 C   0  0  2  0  0  0  0  0  0  0  0  0
   -1.8001   -4.1465   -1.2763 C   0  0  0  0  0  0  0  0  0  0  0  0
   -0.1650   -3.0092    0.2533 C   0  0  0  0  0  2  0  0  0  0  0  0
   -2.0953   -4.7659    1.4997 N   0  0  0  0  0  0  0  0  0  0  0  0
   -4.2725    1.4648    1.3291 C   0  0  0  0  0  0  0  0  0  0  0  0
   -4.5222    2.6348    0.6020 O   0  0  0  0  0  0  0  0  0  0  0  0
   -5.7387    2.5176   -0.0529 C   0  0  0  0  0  0  0  0  0  0  0  0
   -6.8638    2.3054    0.9625 C   0  0  0  0  0  3  0  0  0  0  0  0
   -8.1804    2.1796    0.2375 C   0  0  0  0  0  2  0  0  0  0  0  0
  1  2  1  0
  2  3  1  0
  2  4  1  0
  4  5  1  0
  5  6  1  0
  6  7  1  0
  7  8  1  6
  7  9  1  0
  9 10  1  0
 10 11  1  0
 11 12  1  0
 12 13  1  0
 13 14  1  0
 14 15  1  0
 15 16  1  0
 16 17  1  0
 18 17  1  6
 18 19  1  0
 19 20  1  0
 20 21  1  1
 20 22  1  0
 22 23  1  0
 23 24  1  0
 24 25  1  6
 24 26  1  0
 23 27  1  6
 18 28  1  0
 28 29  1  0
 29 30  1  0
 30 31  1  0
 31 32  1  0
M  RAD  8  12   2  13   3  15   2  16   2  17   3  19   2  26   3  31   2
M  RAD  1  32   3
M  END
$$$$
