
     RDKit          2D

 33 37  0  0  0  0  0  0  0  0999 V2000
   -0.1656   -5.0425    0.0000 C   0  0  0  0  0  0  0  0  0  0  0  0
   -1.0287   -3.8158    0.0000 C   0  0  0  0  0  0  0  0  0  0  0  0
   -2.4785   -3.4308    0.0000 O   0  0  0  0  0  0  0  0  0  0  0  0
    0.0520   -2.6268    0.0000 N   0  0  0  0  0  0  0  0  0  0  0  0
    0.7500   -1.2990    0.0000 C   0  0  0  0  0  0  0  0  0  0  0  0
    1.5000    0.0000    0.0000 C   0  0  0  0  0  0  0  0  0  0  0  0
    0.7500    1.2990    0.0000 C   0  0  0  0  0  0  0  0  0  0  0  0
   -0.7500    1.2990    0.0000 C   0  0  0  0  0  0  0  0  0  0  0  0
   -1.5000    0.0000    0.0000 C   0  0  0  0  0  0  0  0  0  0  0  0
   -0.7500   -1.2990    0.0000 C   0  0  0  0  0  0  0  0  0  0  0  0
   -1.9370   -0.7706    0.0000 C   0  0  0  0  0  0  0  0  0  0  0  0
   -1.7803   -0.8403    0.0000 C   0  0  0  0  0  0  0  0  0  0  0  0
   -2.9672   -0.3119    0.0000 N   0  0  0  0  0  0  0  0  0  0  0  0
   -2.5603   -1.9330    0.0000 N   0  0  0  0  0  0  0  0  0  0  0  0
   -1.4212   -2.9089    0.0000 N   0  0  0  0  0  0  0  0  0  0  0  0
   -1.8062   -4.3587    0.0000 N   0  0  0  0  0  0  0  0  0  0  0  0
   -0.7432   -5.4170    0.0000 C   0  0  0  0  0  0  0  0  0  0  0  0
    0.7049   -5.0255    0.0000 O   0  0  0  0  0  0  0  0  0  0  0  0
   -1.1282   -6.8667    0.0000 N   0  0  0  0  0  0  0  0  0  0  0  0
   -0.0652   -7.9250    0.0000 N   0  0  0  0  0  0  0  0  0  0  0  0
   -0.4502   -9.3748    0.0000 C   0  0  0  0  0  0  0  0  0  0  0  0
   -1.8982   -9.7662    0.0000 O   0  0  0  0  0  0  0  0  0  0  0  0
    0.6129  -10.4331    0.0000 N   0  0  0  0  0  0  0  0  0  0  0  0
    0.2279  -11.8828    0.0000 C   0  0  0  0  0  0  0  0  0  0  0  0
   -1.2202  -12.2743    0.0000 C   0  0  0  0  0  0  0  0  0  0  0  0
   -1.6052  -13.7240    0.0000 C   0  0  0  0  0  0  0  0  0  0  0  0
   -0.5422  -14.7823    0.0000 C   0  0  0  0  0  0  0  0  0  0  0  0
    0.9059  -14.3908    0.0000 C   0  0  0  0  0  0  0  0  0  0  0  0
    1.2909  -12.9411    0.0000 C   0  0  0  0  0  0  0  0  0  0  0  0
    2.7389  -12.5496    0.0000 C   0  0  0  0  0  0  0  0  0  0  0  0
    3.8019  -13.6079    0.0000 C   0  0  0  0  0  0  0  0  0  0  0  0
    5.2499  -13.2165    0.0000 N   0  0  0  0  0  0  0  0  0  0  0  0
    6.3129  -14.2748    0.0000 N   0  0  0  0  0  0  0  0  0  0  0  0
  1  2  2  0
  2  3  1  0
  2  4  1  0
  4  5  1  0
  5  6  2  0
  6  7  1  0
  7  8  2  0
  8  9  1  0
  9 10  2  0
 10 11  1  0
 11 12  1  0
 12 13  1  0
 13 14  1  0
 14 15  1  0
 15 16  1  0
 16 17  1  0
 17 18  2  0
 17 19  1  0
 19 20  2  3
 20 21  1  0
 21 22  2  0
 21 23  1  0
 23 24  1  0
 24 25  2  0
 25 26  1  0
 26 27  2  0
 27 28  1  0
 28 29  2  0
 29 30  1  0
 30 31  1  0
 31 32  1  0
 32 33  2  0
 14  3  1  0
 15  4  1  0
 10  5  1  0
 13  9  1  0
 29 24  1  0
M  END
$$$$
