
     RDKit          3D

 24 23  0  0  0  0  0  0  0  0999 V2000
   -3.8403    5.3412    0.8530 N   0  0  0  0  0  0  0  0  0  0  0  0
   -3.4185    3.9953    0.5512 C   0  0  0  0  0  0  0  0  0  0  0  0
   -1.9816    3.8382    0.5980 N   0  0  0  0  0  0  0  0  0  0  0  0
   -3.9835    3.5393   -0.6726 N   0  0  0  0  0  0  0  0  0  0  0  0
   -3.9526    2.3445   -1.0713 C   0  0  0  0  0  0  0  0  0  0  0  0
   -3.2994    1.2780   -0.2651 C   0  0  0  0  0  0  0  0  0  0  0  0
   -1.8338    1.2860   -0.6014 C   0  0  0  0  0  0  0  0  0  0  0  0
   -1.0949    0.2212    0.1840 C   0  0  0  0  0  0  0  0  0  0  0  0
   -1.6327   -1.1568   -0.1216 C   0  0  0  0  0  0  0  0  0  0  0  0
   -0.8024   -2.1286    0.5646 N   0  0  0  0  0  0  0  0  0  0  0  0
   -1.2935   -3.3591    0.2835 O   0  0  0  0  0  0  0  0  0  0  0  0
   -1.9143   -3.2850   -0.9635 C   0  0  0  0  0  0  0  0  0  0  0  0
   -2.4532   -4.6282   -1.2758 C   0  0  0  0  0  0  0  0  0  0  0  0
   -2.3534   -5.5937   -0.5535 O   0  0  0  0  0  0  0  0  0  0  0  0
   -1.1116    0.4995    1.5545 O   0  0  0  0  0  0  0  0  0  0  0  0
    0.3567    0.2498   -0.2466 C   0  0  0  0  0  0  0  0  0  0  0  0
    1.0962   -0.8136    0.5374 C   0  0  0  0  0  0  0  0  0  0  0  0
    2.5580   -0.7582    0.0788 C   0  0  0  0  0  0  0  0  0  0  0  0
    3.0343    0.6520    0.4073 C   0  0  0  0  0  0  0  0  0  0  0  0
    4.4815    0.7968   -0.0159 C   0  0  0  0  0  0  0  0  0  0  0  0
    5.2915   -0.2285    0.7496 C   0  0  0  0  0  0  0  0  0  0  0  0
    4.8215   -1.4953    0.4454 F   0  0  0  0  0  0  0  0  0  0  0  0
    6.7117   -0.1480    0.2137 C   0  0  0  0  0  0  0  0  0  0  0  0
    6.6144   -0.4469   -1.1522 F   0  0  0  0  0  0  0  0  0  0  0  0
  1  2  1  0
  2  3  1  0
  2  4  1  0
  4  5  2  3
  5  6  1  0
  6  7  1  0
  7  8  1  0
  8  9  1  0
  9 10  1  0
 10 11  1  0
 11 12  1  0
 12 13  1  0
 13 14  2  0
  8 15  1  0
  8 16  1  0
 16 17  1  0
 17 18  1  0
 18 19  1  0
 19 20  1  0
 20 21  1  0
 21 22  1  0
 21 23  1  0
 23 24  1  0
M  END
$$$$
