
     RDKit          3D

 24 24  0  0  0  0  0  0  0  0999 V2000
    3.1624    1.2968    0.7570 C   0  0  0  0  0  0  0  0  0  0  0  0
    2.6265    0.4942   -0.3906 C   0  0  1  0  0  0  0  0  0  0  0  0
    3.7295   -0.1295   -1.2118 C   0  0  0  0  0  0  0  0  0  0  0  0
    3.2735   -1.4865   -1.7026 C   0  0  2  0  0  0  0  0  0  0  0  0
    2.0586   -1.4130   -2.3910 O   0  0  0  0  0  0  0  0  0  0  0  0
    3.0877   -2.4724   -0.5693 C   0  0  2  0  0  0  0  0  0  0  0  0
    2.2767   -3.5140   -1.0262 O   0  0  0  0  0  0  0  0  0  0  0  0
    2.3915   -1.7664    0.5755 C   0  0  1  0  0  0  0  0  0  0  0  0
    3.3051   -1.3498    1.5482 O   0  0  0  0  0  0  0  0  0  0  0  0
    1.6646   -0.5733    0.0132 C   0  0  1  0  0  0  0  0  0  0  0  0
    0.6184   -0.0949    0.8895 N   0  0  0  0  0  0  0  0  0  0  0  0
   -0.1435    0.8945    0.1548 C   0  0  0  0  0  3  0  0  0  0  0  0
   -1.4104    1.2787    0.9040 C   0  0  0  0  0  0  0  0  0  0  0  0
   -2.1802    2.3107    0.1123 C   0  0  0  0  0  0  0  0  0  0  0  0
   -1.3952    3.4262   -0.0613 O   0  0  0  0  0  0  0  0  0  0  0  0
   -2.0577    4.4111   -0.7864 C   0  0  0  0  0  3  0  0  0  0  0  0
   -1.7939    5.6390   -0.1656 O   0  0  0  0  0  0  0  0  0  0  0  0
   -1.1398    1.7043    2.3161 C   0  0  0  0  0  2  0  0  0  0  0  0
   -2.3042    0.0336    0.9312 C   0  0  0  0  0  0  0  0  0  0  0  0
   -2.6025   -0.3580   -0.3683 O   0  0  0  0  0  0  0  0  0  0  0  0
   -3.3984   -1.4619   -0.4461 C   0  0  2  0  0  0  0  0  0  0  0  0
   -4.6388   -1.3060    0.1689 O   0  0  0  0  0  0  0  0  0  0  0  0
   -2.7895   -2.7492   -0.0363 C   0  0  0  0  0  3  0  0  0  0  0  0
   -2.3404   -2.8139    1.2561 O   0  0  0  0  0  0  0  0  0  0  0  0
  2  1  1  1
  2  3  1  0
  3  4  1  0
  4  5  1  1
  4  6  1  0
  6  7  1  6
  6  8  1  0
  8  9  1  1
  8 10  1  0
 10 11  1  1
 11 12  1  0
 12 13  1  0
 13 14  1  0
 14 15  1  0
 15 16  1  0
 16 17  1  0
 13 18  1  0
 13 19  1  0
 19 20  1  0
 20 21  1  0
 21 22  1  1
 21 23  1  0
 23 24  1  0
 10  2  1  0
M  RAD  4  12   2  16   2  18   3  23   2
M  END
$$$$
