
     RDKit          3D

 21 24  0  0  0  0  0  0  0  0999 V2000
    2.4154   -1.3412    0.9865 C   0  0  0  0  0  0  0  0  0  0  0  0
    1.5030   -0.3042    0.3688 C   0  0  2  0  0  0  0  0  0  0  0  0
    1.7001   -0.3070   -1.1314 C   0  0  0  0  0  0  0  0  0  0  0  0
    3.2016   -0.3114   -1.3758 C   0  0  0  0  0  0  0  0  0  0  0  0
    3.8664    0.5167   -0.3359 C   0  0  0  0  0  0  0  0  0  0  0  0
    5.0405    0.3433   -0.0147 O   0  0  0  0  0  0  0  0  0  0  0  0
    3.1384    1.6034    0.3719 C   0  0  0  0  0  0  0  0  0  0  0  0
    1.8228    1.0914    0.8552 C   0  0  2  0  0  0  0  0  0  0  0  0
    1.6970    1.0791    2.3615 C   0  0  0  0  0  0  0  0  0  0  0  0
    0.2368    0.8537    2.7215 C   0  0  0  0  0  0  0  0  0  0  0  0
   -0.5762    0.5055    1.5055 C   0  0  0  0  0  3  0  0  0  0  0  0
    0.0831   -0.6077    0.7644 C   0  0  1  0  0  0  0  0  0  0  0  0
   -0.6928   -1.1584   -0.3736 C   0  0  0  0  0  0  0  0  0  0  0  0
   -0.7995   -0.2386   -1.5971 C   0  0  0  0  0  0  0  0  0  0  0  0
   -2.2067   -0.8246   -1.7836 C   0  0  0  0  0  3  0  0  0  0  0  0
   -2.0609   -2.1860   -2.4679 C   0  0  0  0  0  0  0  0  0  0  0  0
   -2.2047   -1.0485   -0.2647 C   0  0  2  0  0  0  0  0  0  0  0  0
   -2.6248    0.1230    0.3932 O   0  0  0  0  0  0  0  0  0  0  0  0
   -4.0281    0.0801    0.4148 C   0  0  0  0  0  0  0  0  0  0  0  0
   -4.9122    0.8997   -0.2790 C   0  0  0  0  0  0  0  0  0  0  0  0
   -4.5992    1.2317    1.0666 O   0  0  0  0  0  0  0  0  0  0  0  0
  2  1  1  1
  2  3  1  0
  3  4  1  0
  4  5  1  0
  5  6  2  0
  5  7  1  0
  8  7  1  1
  8  9  1  0
  9 10  1  0
 10 11  1  0
 11 12  1  0
 12 13  1  6
 13 14  1  0
 14 15  1  0
 15 16  1  0
 15 17  1  0
 17 18  1  1
 18 19  1  0
 19 20  1  0
 20 21  1  0
  8  2  1  0
 12  2  1  0
 17 13  1  0
 21 19  1  0
M  RAD  2  11   2  15   2
M  END
$$$$
