
     RDKit          3D

 21 20  0  0  0  0  0  0  0  0999 V2000
    5.4105    2.1583   -0.7659 O   0  0  0  0  0  0  0  0  0  0  0  0
    4.3861    1.3502   -0.2982 C   0  0  0  0  0  0  0  0  0  0  0  0
    3.2098    1.3669   -1.2373 C   0  0  0  0  0  3  0  0  0  0  0  0
    2.1348    0.5436   -0.7846 N   0  0  0  0  0  0  0  0  0  0  0  0
    2.6318   -0.6149   -0.1247 C   0  0  2  0  0  0  0  0  0  0  0  0
    3.4586   -1.4988   -1.0679 C   0  0  0  0  0  0  0  0  0  0  0  0
    3.9035   -2.6011   -0.3537 O   0  0  0  0  0  0  0  0  0  0  0  0
    1.4892   -1.5313    0.3598 C   0  0  1  0  0  0  0  0  0  0  0  0
    2.2054   -2.5916    0.9887 O   0  0  0  0  0  0  0  0  0  0  0  0
    0.7860   -0.7148    1.4411 C   0  0  2  0  0  0  0  0  0  0  0  0
   -0.1288   -1.5067    2.1301 O   0  0  0  0  0  0  0  0  0  0  0  0
    0.0318    0.3149    0.7340 N   0  0  0  0  0  0  0  0  0  0  0  0
   -0.9950   -0.2624   -0.0689 C   0  0  2  0  0  0  0  0  0  0  0  0
   -0.5646   -1.1781   -1.1564 C   0  0  0  0  0  0  0  0  0  0  0  0
   -1.8088    0.8595   -0.6880 C   0  0  0  0  0  0  0  0  0  0  0  0
   -2.8093    0.3412   -1.4750 O   0  0  0  0  0  0  0  0  0  0  0  0
   -3.6519   -0.4537   -0.6855 C   0  0  0  0  0  0  0  0  0  0  0  0
   -4.1837    0.4062    0.3211 O   0  0  0  0  0  0  0  0  0  0  0  0
   -4.9212    1.5002   -0.1184 C   0  0  0  0  0  0  0  0  0  0  0  0
   -5.4463    2.3458    0.8532 O   0  0  0  0  0  1  0  0  0  0  0  0
   -5.1379    1.7666   -1.3073 O   0  0  0  0  0  0  0  0  0  0  0  0
  1  2  1  0
  2  3  1  0
  3  4  1  0
  4  5  1  0
  5  6  1  6
  6  7  1  0
  5  8  1  0
  8  9  1  1
  8 10  1  0
 10 11  1  6
 10 12  1  0
 12 13  1  0
 13 14  1  6
 13 15  1  0
 15 16  1  0
 16 17  1  0
 17 18  1  0
 18 19  1  0
 19 20  1  0
 19 21  2  0
M  CHG  1  20  -1
M  RAD  1   3   2
M  END
$$$$
