
     RDKit          2D

 84 85  0  0  0  0  0  0  0  0999 V2000
    6.0000    2.5981    0.0000 C   0  0  0  0  0  0  0  0  0  0  0  0
    5.2500    1.2990    0.0000 C   0  0  0  0  0  0  0  0  0  0  0  0
    6.0000    0.0000    0.0000 C   0  0  0  0  0  0  0  0  0  0  0  0
    3.7500    1.2990    0.0000 C   0  0  0  0  0  0  0  0  0  0  0  0
    3.0000    0.0000    0.0000 C   0  0  0  0  0  3  0  0  0  0  0  0
    1.5000    0.0000    0.0000 C   0  0  0  0  0  0  0  0  0  0  0  0
    0.7500   -1.2990    0.0000 C   0  0  0  0  0  0  0  0  0  0  0  0
    1.5000   -2.5981    0.0000 C   0  0  0  0  0  2  0  0  0  0  0  0
   -0.7500   -1.2990    0.0000 C   0  0  0  0  0  0  0  0  0  0  0  0
   -0.2098   -3.2166    0.0000 C   0  0  0  0  0  0  0  0  0  0  0  0
    1.2574   -3.5285    0.0000 C   0  0  0  0  0  3  0  0  0  0  0  0
    2.6277   -2.9184    0.0000 C   0  0  0  0  0  0  0  0  0  0  0  0
    3.6314   -4.0331    0.0000 C   0  0  0  0  0  0  0  0  0  0  0  0
    3.1679   -5.4597    0.0000 C   0  0  0  0  0  0  0  0  0  0  0  0
    3.3777   -1.6193    0.0000 C   0  0  0  0  0  0  0  0  0  0  0  0
    3.2209   -0.1275    0.0000 C   0  0  0  0  0  0  0  0  0  0  0  0
    4.5912    0.4826    0.0000 C   0  0  0  0  0  2  0  0  0  0  0  0
    2.2172    0.9872    0.0000 C   0  0  0  0  0  3  0  0  0  0  0  0
    0.7500    1.2990    0.0000 C   0  0  0  0  0  0  0  0  0  0  0  0
   -0.7500    1.2990    0.0000 C   0  0  0  0  0  0  0  0  0  0  0  0
   -1.5000    2.5981    0.0000 C   0  0  0  0  0  2  0  0  0  0  0  0
   -1.5000    0.0000    0.0000 C   0  0  0  0  0  3  0  0  0  0  0  0
    4.8449   -1.9312    0.0000 C   0  0  0  0  0  0  0  0  0  0  0  0
    5.3085   -3.3578    0.0000 O   0  0  0  0  0  0  0  0  0  0  0  0
    6.7757   -3.6696    0.0000 C   0  0  0  0  0  0  0  0  0  0  0  0
    7.2392   -5.0962    0.0000 C   0  0  0  0  0  0  0  0  0  0  0  0
    7.7794   -2.5549    0.0000 C   0  0  0  0  0  3  0  0  0  0  0  0
    9.2466   -2.8668    0.0000 C   0  0  0  0  0  0  0  0  0  0  0  0
   10.2503   -1.7521    0.0000 C   0  0  0  0  0  2  0  0  0  0  0  0
    9.7101   -4.2934    0.0000 C   0  0  0  0  0  0  0  0  0  0  0  0
   11.1773   -4.6053    0.0000 C   0  0  0  0  0  0  0  0  0  0  0  0
   11.6409   -6.0318    0.0000 C   0  0  0  0  0  3  0  0  0  0  0  0
   13.1081   -6.3437    0.0000 C   0  0  0  0  0  3  0  0  0  0  0  0
   13.5716   -7.7703    0.0000 C   0  0  0  0  0  3  0  0  0  0  0  0
   15.0388   -8.0822    0.0000 C   0  0  0  0  0  3  0  0  0  0  0  0
   15.5024   -9.5087    0.0000 C   0  0  0  0  0  0  0  0  0  0  0  0
   16.9696   -9.8206    0.0000 C   0  0  0  0  0  0  0  0  0  0  0  0
   17.4331  -11.2472    0.0000 C   0  0  0  0  0  0  0  0  0  0  0  0
   18.9003  -11.5591    0.0000 C   0  0  0  0  0  3  0  0  0  0  0  0
   19.3639  -12.9856    0.0000 C   0  0  0  0  0  0  0  0  0  0  0  0
   20.8311  -13.2975    0.0000 C   0  0  0  0  0  0  0  0  0  0  0  0
   18.3602  -14.1004    0.0000 C   0  0  0  0  0  0  0  0  0  0  0  0
   19.4749  -15.1041    0.0000 C   0  0  0  0  0  2  0  0  0  0  0  0
   17.2454  -13.0967    0.0000 C   0  0  0  0  0  0  0  0  0  0  0  0
   17.3565  -15.2151    0.0000 C   0  0  0  0  0  3  0  0  0  0  0  0
   15.8892  -14.9032    0.0000 C   0  0  0  0  0  3  0  0  0  0  0  0
   14.8855  -16.0179    0.0000 C   0  0  0  0  0  3  0  0  0  0  0  0
   13.4183  -15.7061    0.0000 C   0  0  0  0  0  0  0  0  0  0  0  0
   12.4146  -16.8208    0.0000 C   0  0  0  0  0  0  0  0  0  0  0  0
   10.9474  -16.5089    0.0000 C   0  0  0  0  0  3  0  0  0  0  0  0
    9.9437  -17.6236    0.0000 C   0  0  0  0  0  3  0  0  0  0  0  0
    8.4765  -17.3118    0.0000 C   0  0  0  0  0  0  0  0  0  0  0  0
    8.0130  -15.8852    0.0000 C   0  0  0  0  0  3  0  0  0  0  0  0
    6.5457  -15.5733    0.0000 O   0  0  0  0  0  1  0  0  0  0  0  0
    7.4728  -18.4265    0.0000 C   0  0  0  0  0  3  0  0  0  0  0  0
    6.0056  -18.1146    0.0000 C   0  0  0  0  0  0  0  0  0  0  0  0
    5.5420  -16.6880    0.0000 N   0  0  0  0  0  0  0  0  0  0  0  0
    5.0019  -19.2293    0.0000 C   0  0  0  0  0  0  0  0  0  0  0  0
    3.5347  -18.9175    0.0000 C   0  0  0  0  0  0  0  0  0  0  0  0
    3.8465  -17.4502    0.0000 C   0  0  0  0  0  3  0  0  0  0  0  0
    2.7318  -16.4465    0.0000 N   0  0  0  0  0  0  0  0  0  0  0  0
    3.0437  -14.9793    0.0000 C   0  0  0  0  0  2  0  0  0  0  0  0
    3.2228  -20.3847    0.0000 N   0  0  0  0  0  0  0  0  0  0  0  0
    1.7962  -20.8482    0.0000 C   0  0  0  0  0  0  0  0  0  0  0  0
    1.4843  -22.3154    0.0000 C   0  0  0  0  0  3  0  0  0  0  0  0
    0.0578  -22.7790    0.0000 C   0  0  0  0  0  0  0  0  0  0  0  0
    2.0674  -18.6056    0.0000 C   0  0  0  0  0  3  0  0  0  0  0  0
    1.6039  -17.1790    0.0000 C   0  0  0  0  0  0  0  0  0  0  0  0
    0.1367  -16.8671    0.0000 C   0  0  0  0  0  0  0  0  0  0  0  0
    2.6076  -16.0643    0.0000 C   0  0  0  0  0  3  0  0  0  0  0  0
    2.1441  -14.6377    0.0000 C   0  0  0  0  0  0  0  0  0  0  0  0
    3.1478  -13.5230    0.0000 C   0  0  0  0  0  0  0  0  0  0  0  0
    2.6842  -12.0964    0.0000 C   0  0  0  0  0  3  0  0  0  0  0  0
    3.6879  -10.9817    0.0000 C   0  0  0  0  0  3  0  0  0  0  0  0
    3.2244   -9.5551    0.0000 C   0  0  0  0  0  0  0  0  0  0  0  0
    4.2281   -8.4404    0.0000 C   0  0  0  0  0  3  0  0  0  0  0  0
    3.7646   -7.0138    0.0000 C   0  0  0  0  0  3  0  0  0  0  0  0
    4.7683   -5.8991    0.0000 C   0  0  0  0  0  3  0  0  0  0  0  0
    4.3048   -4.4725    0.0000 C   0  0  0  0  0  3  0  0  0  0  0  0
    5.3085   -3.3578    0.0000 C   0  0  0  0  0  3  0  0  0  0  0  0
    4.8449   -1.9312    0.0000 C   0  0  0  0  0  3  0  0  0  0  0  0
    5.8486   -0.8165    0.0000 C   0  0  0  0  0  0  0  0  0  0  0  0
    5.3851    0.6101    0.0000 C   0  0  0  0  0  0  0  0  0  0  0  0
    6.3888    1.7248    0.0000 C   0  0  0  0  0  2  0  0  0  0  0  0
  1  2  1  0
  2  3  1  0
  2  4  1  0
  4  5  1  0
  5  6  1  0
  6  7  1  0
  7  8  1  6
  7  9  1  0
  9 10  1  0
 10 11  1  0
 11 12  1  0
 12 13  1  1
 13 14  1  0
 12 15  1  0
 15 16  1  0
 16 17  1  1
 16 18  1  0
 19 18  1  6
 19 20  1  0
 20 21  1  6
 20 22  1  0
 15 23  1  0
 23 24  1  0
 24 25  1  0
 25 26  1  6
 25 27  1  0
 27 28  1  0
 28 29  1  1
 28 30  1  0
 30 31  1  0
 31 32  1  0
 32 33  1  0
 33 34  1  0
 34 35  1  0
 35 36  1  0
 36 37  1  0
 37 38  1  0
 38 39  1  0
 39 40  1  0
 40 41  1  6
 40 42  1  0
 42 43  1  0
 42 44  1  0
 42 45  1  0
 45 46  1  0
 46 47  1  0
 47 48  1  0
 48 49  1  0
 49 50  1  0
 50 51  1  0
 52 51  1  6
 52 53  1  0
 53 54  1  0
 52 55  1  0
 55 56  1  0
 56 57  1  1
 56 58  1  0
 58 59  1  0
 59 60  1  0
 60 61  1  0
 61 62  1  0
 59 63  1  0
 63 64  1  0
 64 65  1  0
 65 66  1  0
 59 67  1  0
 67 68  1  0
 68 69  1  6
 68 70  1  0
 70 71  1  0
 71 72  1  0
 72 73  1  0
 73 74  1  0
 74 75  1  0
 75 76  1  0
 76 77  1  0
 77 78  1  0
 78 79  1  0
 79 80  1  0
 80 81  1  0
 81 82  1  0
 82 83  1  0
 83 84  1  0
 19  6  1  0
 22  9  1  0
M  RAD  8   5   2   8   3  11   2  17   3  18   2  21   3  22   2  27   2
M  RAD  8  29   3  32   2  33   2  34   2  35   2  39   2  43   3  45   2
M  RAD  8  46   2  47   2  50   2  51   2  53   2  55   2  60   2  62   3
M  RAD  8  65   2  67   2  70   2  73   2  74   2  76   2  77   2  78   2
M  CHG  1  54  -1
M  RAD  4  79   2  80   2  81   2  84   3
M  END
$$$$
