
     RDKit          3D

 61 69  0  0  0  0  0  0  0  0999 V2000
   11.3079   -1.3359   -0.9360 C   0  0  0  0  0  0  0  0  0  0  0  0
   10.1728   -0.6152   -0.2227 C   0  0  2  0  0  0  0  0  0  0  0  0
   10.6300    0.7509    0.2551 C   0  0  0  0  0  0  0  0  0  0  0  0
    9.3624    1.5914    0.3133 C   0  0  2  0  0  0  0  0  0  0  0  0
    9.0012    1.6834    1.6477 O   0  0  0  0  0  0  0  0  0  0  0  0
    9.4779    0.6202    2.2941 O   0  0  0  0  0  0  0  0  0  0  0  0
    8.8708   -0.5320    1.8550 C   0  0  0  0  0  0  0  0  0  0  0  0
    9.7384   -1.3934    0.9844 C   0  0  0  0  0  3  0  0  0  0  0  0
    8.2966    0.7796   -0.4123 C   0  0  0  0  0  0  0  0  0  0  0  0
    9.0521   -0.2759   -1.1600 C   0  0  2  0  0  0  0  0  0  0  0  0
    8.2818   -1.3857   -1.4160 O   0  0  0  0  0  0  0  0  0  0  0  0
    7.2315   -1.1561   -2.2691 C   0  0  0  0  0  0  0  0  0  0  0  0
    6.2443   -0.1382   -1.7978 C   0  0  0  0  0  3  0  0  0  0  0  0
    5.1236   -0.7609   -0.9833 C   0  0  0  0  0  0  0  0  0  0  0  0
    4.3552   -1.7815   -1.7877 C   0  0  0  0  0  2  0  0  0  0  0  0
    5.7474   -1.3677    0.2552 C   0  0  0  0  0  0  0  0  0  0  0  0
    5.5328   -0.2636    1.2690 C   0  0  0  0  0  0  0  0  0  0  0  0
    4.2248    0.1396    0.9604 O   0  0  0  0  0  0  0  0  0  0  0  0
    4.2092    0.2820   -0.4319 C   0  0  2  0  0  0  0  0  0  0  0  0
    2.9045    0.1591   -0.9237 O   0  0  0  0  0  0  0  0  0  0  0  0
    2.0794    1.1379   -0.3736 C   0  0  2  0  0  0  0  0  0  0  0  0
    2.6057    2.3770   -0.7282 O   0  0  0  0  0  0  0  0  0  0  0  0
    2.1150    0.9662    1.1193 C   0  0  1  0  0  0  0  0  0  0  0  0
    1.2549    1.9735    1.8456 C   0  0  0  0  0  0  0  0  0  0  0  0
    0.6034    1.1109    2.9119 C   0  0  0  0  0  0  0  0  0  0  0  0
    1.3542   -0.0852    2.9307 O   0  0  0  0  0  0  0  0  0  0  0  0
    1.4798   -0.3347    1.5631 C   0  0  1  0  0  0  0  0  0  0  0  0
   -0.2988   -0.2459    0.9094 S   0  0  0  0  0  0  0  0  0  0  0  0
   -0.6773   -0.1164   -0.5061 O   0  0  0  0  0  0  0  0  0  0  0  0
   -0.6670    1.0142   -1.2742 C   0  0  0  0  0  3  0  0  0  0  0  0
   -1.8898    1.2268   -2.0991 C   0  0  0  0  0  3  0  0  0  0  0  0
   -2.7168    2.4133   -1.6384 C   0  0  0  0  0  0  0  0  0  0  0  0
   -4.1510    2.0059   -1.6436 C   0  0  0  0  0  3  0  0  0  0  0  0
   -4.8896    2.3754   -0.3805 C   0  0  2  0  0  0  0  0  0  0  0  0
   -5.7374    1.1864    0.0090 C   0  0  2  0  0  0  0  0  0  0  0  0
   -6.6140    0.8761   -1.0820 N   0  0  0  0  0  0  0  0  0  0  0  0
   -7.8753    0.4060   -0.5556 C   0  0  0  0  0  0  0  0  0  0  0  0
   -8.6080    1.5536    0.1328 C   0  0  0  0  0  3  0  0  0  0  0  0
   -8.1395    2.8822   -0.4183 C   0  0  2  0  0  0  0  0  0  0  0  0
   -7.8228    2.7747   -1.7605 O   0  0  0  0  0  0  0  0  0  0  0  0
   -6.9847    3.4462    0.3581 C   0  0  0  0  0  3  0  0  0  0  0  0
   -5.7699    3.5676   -0.5367 C   0  0  1  0  0  0  0  0  0  0  0  0
   -4.9704    4.8087   -0.2333 C   0  0  0  0  0  0  0  0  0  0  0  0
   -5.7712    6.0733   -0.3629 C   0  0  0  0  0  0  0  0  0  0  0  0
   -6.4195    1.3471    1.3264 C   0  0  0  0  0  3  0  0  0  0  0  0
   -7.0184    0.0128    1.7185 C   0  0  0  0  0  3  0  0  0  0  0  0
   -7.5628   -0.6650    0.4735 C   0  0  2  0  0  0  0  0  0  0  0  0
   -6.4315   -1.5119   -0.0850 C   0  0  0  0  0  0  0  0  0  0  0  0
   -6.8754   -2.8993   -0.4191 C   0  0  0  0  0  0  0  0  0  0  0  0
   -5.9224   -4.1322    0.6093 Si  0  0  0  0  0  3  0  0  0  0  0  0
   -4.8646   -5.2331   -0.4601 C   0  0  2  0  0  0  0  0  0  0  0  0
   -5.2565   -6.6820   -0.2851 C   0  0  0  0  0  2  0  0  0  0  0  0
   -3.6216   -4.8831    0.3165 C   0  0  0  0  0  3  0  0  0  0  0  0
   -4.1629   -3.5785    0.8097 C   0  0  1  0  0  0  0  0  0  0  0  0
   -3.8662   -2.4573    0.0666 O   0  0  0  0  0  0  0  0  0  0  0  0
   -2.5225   -2.1641    0.2247 C   0  0  0  0  0  3  0  0  0  0  0  0
   -2.0998   -2.1120    1.6780 C   0  0  2  0  0  0  0  0  0  0  0  0
   -3.3391   -2.1003    2.5494 C   0  0  0  0  0  3  0  0  0  0  0  0
   -3.5021   -0.6431    2.8531 C   0  0  0  0  0  3  0  0  0  0  0  0
   -2.6749    0.0441    1.9423 O   0  0  0  0  0  0  0  0  0  0  0  0
   -1.5340   -0.7358    1.9462 C   0  0  2  0  0  0  0  0  0  0  0  0
  2  1  1  6
  2  3  1  0
  3  4  1  0
  4  5  1  0
  5  6  1  0
  6  7  1  0
  7  8  1  0
  4  9  1  6
  9 10  1  0
 10 11  1  1
 11 12  1  0
 12 13  1  0
 13 14  1  0
 14 15  1  0
 14 16  1  0
 16 17  1  0
 17 18  1  0
 18 19  1  0
 19 20  1  6
 20 21  1  0
 21 22  1  1
 21 23  1  0
 23 24  1  1
 24 25  1  0
 25 26  1  0
 26 27  1  0
 27 28  1  6
 28 29  1  0
 29 30  1  0
 30 31  1  0
 31 32  1  0
 32 33  1  0
 34 33  1  6
 34 35  1  0
 35 36  1  0
 36 37  1  0
 37 38  1  0
 38 39  1  0
 39 40  1  6
 39 41  1  0
 41 42  1  0
 42 43  1  1
 43 44  1  0
 35 45  1  1
 45 46  1  0
 47 46  1  1
 47 48  1  0
 48 49  1  0
 49 50  1  0
 50 51  1  0
 51 52  1  1
 51 53  1  0
 54 53  1  6
 54 55  1  0
 55 56  1  0
 56 57  1  0
 57 58  1  1
 58 59  1  0
 59 60  1  0
 61 60  1  6
  8  2  1  0
 10  2  1  0
 19 14  1  0
 27 23  1  0
 61 28  1  0
 42 34  1  0
 47 37  1  0
 54 50  1  0
 61 57  1  0
M  RAD  8   8   2  13   2  15   3  30   2  31   2  33   2  38   2  41   2
M  RAD  8  45   2  46   2  50   2  52   3  53   2  56   2  58   2  59   2
M  END
$$$$
