
     RDKit          3D

 34 34  0  0  0  0  0  0  0  0999 V2000
   11.6752    1.0814   -0.0454 C   0  0  0  0  0  0  0  0  0  0  0  0
   10.6787    0.4763   -0.6708 C   0  0  0  0  0  0  0  0  0  0  0  0
   10.9110   -0.4176   -1.8346 C   0  0  0  0  0  0  0  0  0  0  0  0
    9.2840    0.6928   -0.2005 C   0  0  0  0  0  0  0  0  0  0  0  0
    8.6634   -0.6198    0.2120 C   0  0  0  0  0  0  0  0  0  0  0  0
    7.2555   -0.4084    0.6877 C   0  0  0  0  0  0  0  0  0  0  0  0
    6.4467    0.1937   -0.4333 C   0  0  1  0  0  0  0  0  0  0  0  0
    6.4246   -0.7246   -1.6517 C   0  0  0  0  0  0  0  0  0  0  0  0
    5.0415    0.4549    0.0188 C   0  0  0  0  0  3  0  0  0  0  0  0
    4.2665    1.0607   -1.1446 C   0  0  0  0  0  0  0  0  0  0  0  0
    2.8266    1.3468   -0.7370 C   0  0  0  0  0  0  0  0  0  0  0  0
    2.1445    0.0577   -0.3152 C   0  0  0  0  0  3  0  0  0  0  0  0
    2.8495   -0.5773    0.8516 C   0  0  0  0  0  3  0  0  0  0  0  0
    1.8446   -1.1964    1.7917 C   0  0  0  0  0  3  0  0  0  0  0  0
    0.7148   -1.8885    1.0612 C   0  0  0  0  0  0  0  0  0  0  0  0
   -0.0024   -0.8737    0.2026 C   0  0  0  0  0  3  0  0  0  0  0  0
   -0.5568    0.2328    1.1029 C   0  0  0  0  0  0  0  0  0  0  0  0
   -1.5103   -0.4416    2.0712 C   0  0  0  0  0  0  0  0  0  0  0  0
   -2.1042    0.5916    3.0107 C   0  0  0  0  0  2  0  0  0  0  0  0
   -2.5203   -1.2065    1.3261 C   0  0  0  0  0  0  0  0  0  0  0  0
   -3.5463   -1.9489    2.0671 C   0  0  0  0  0  0  0  0  0  0  0  0
   -2.4495   -1.2978   -0.1270 C   0  0  0  0  0  0  0  0  0  0  0  0
   -2.5125   -0.0550   -0.9246 C   0  0  0  0  0  0  0  0  0  0  0  0
   -3.7241    0.7820   -0.8157 C   0  0  0  0  0  3  0  0  0  0  0  0
   -5.0072    0.1922   -1.2616 C   0  0  0  0  0  0  0  0  0  0  0  0
   -5.4429   -1.0396   -0.5595 C   0  0  0  0  0  0  0  0  0  0  0  0
   -6.0631    1.2565   -1.3740 C   0  0  2  0  0  0  0  0  0  0  0  0
   -6.2889    1.9346   -0.0314 C   0  0  0  0  0  0  0  0  0  0  0  0
   -5.1390    2.5377    0.4444 O   0  0  0  0  0  0  0  0  0  0  0  0
   -7.3652    0.6127   -1.7987 C   0  0  0  0  0  0  0  0  0  0  0  0
   -7.8431   -0.5550   -0.6287 S   0  0  0  0  0  0  0  0  0  0  0  0
   -9.3060   -1.4685   -0.8356 C   0  0  0  0  0  0  0  0  0  0  0  0
   -9.2730   -0.4303    0.3691 C   0  0  2  0  0  0  0  0  0  0  0  0
  -10.3722    1.0298    0.1731 P   0  0  0  0  0  0  0  0  0  0  0  0
  1  2  2  0
  2  3  1  0
  2  4  1  0
  4  5  1  0
  5  6  1  0
  6  7  1  0
  7  8  1  6
  7  9  1  0
  9 10  1  0
 10 11  1  0
 11 12  1  0
 12 13  1  0
 13 14  1  0
 14 15  1  0
 15 16  1  0
 16 17  1  0
 17 18  1  0
 18 19  1  0
 18 20  1  0
 20 21  1  0
 20 22  1  0
 22 23  1  0
 23 24  1  0
 24 25  1  0
 25 26  1  0
 25 27  1  0
 27 28  1  1
 28 29  1  0
 27 30  1  0
 30 31  1  0
 31 32  1  0
 32 33  1  0
 33 34  1  6
 33 31  1  0
M  RAD  7   9   2  12   2  13   2  14   2  16   2  19   3  24   2
M  END
$$$$
