
     RDKit          3D

 23 23  0  0  0  0  0  0  0  0999 V2000
   -3.2716   -2.2109   -0.5499 C   0  0  0  0  0  0  0  0  0  0  0  0
   -3.2601   -0.7719   -1.0725 C   0  0  1  0  0  0  0  0  0  0  0  0
   -4.6705   -0.2668   -0.9434 C   0  0  0  0  0  0  0  0  0  0  0  0
   -4.7807    1.1433   -0.4431 C   0  0  2  0  0  0  0  0  0  0  0  0
   -4.5041    2.0842   -1.4374 O   0  0  0  0  0  0  0  0  0  0  0  0
   -3.9954    1.3878    0.8197 C   0  0  2  0  0  0  0  0  0  0  0  0
   -3.1450    2.4872    0.5557 O   0  0  0  0  0  0  0  0  0  0  0  0
   -3.0435    0.2227    1.1244 C   0  0  1  0  0  0  0  0  0  0  0  0
   -3.8655   -0.8928    1.3377 O   0  0  0  0  0  0  0  0  0  0  0  0
   -2.3027   -0.0109   -0.1968 C   0  0  1  0  0  0  0  0  0  0  0  0
   -1.0638   -0.6905    0.0051 N   0  0  0  0  0  0  0  0  0  0  0  0
   -0.4219   -0.8186   -1.3114 C   0  0  0  0  0  3  0  0  0  0  0  0
    0.9347   -1.4740   -1.1674 C   0  0  0  0  0  0  0  0  0  0  0  0
    1.9325   -0.5555   -0.9643 O   0  0  0  0  0  0  0  0  0  0  0  0
    2.1125    0.3692   -1.9644 C   0  0  0  0  0  0  0  0  0  0  0  0
    3.1612    1.2213   -1.5921 O   0  0  0  0  0  0  0  0  0  0  0  0
    4.2740    0.5382   -1.4129 O   0  0  0  0  0  0  0  0  0  0  0  0
    4.1164   -0.3516   -0.3478 C   0  0  1  0  0  0  0  0  0  0  0  0
    5.3308   -1.0407   -0.2163 O   0  0  0  0  0  0  0  0  0  0  0  0
    3.7202    0.3380    0.9163 C   0  0  2  0  0  0  0  0  0  0  0  0
    4.6971    1.2481    1.2713 O   0  0  0  0  0  0  0  0  0  0  0  0
    3.4660   -0.5880    2.0636 C   0  0  0  0  0  3  0  0  0  0  0  0
    4.5795   -1.3677    2.4101 O   0  0  0  0  0  0  0  0  0  0  0  0
  2  1  1  1
  2  3  1  0
  3  4  1  0
  4  5  1  6
  4  6  1  0
  6  7  1  6
  6  8  1  0
  8  9  1  6
  8 10  1  0
 10 11  1  1
 11 12  1  0
 12 13  1  0
 13 14  1  0
 14 15  1  0
 15 16  1  0
 16 17  1  0
 17 18  1  0
 18 19  1  1
 18 20  1  0
 20 21  1  1
 20 22  1  0
 22 23  1  0
 10  2  1  0
M  RAD  2  12   2  22   2
M  END
$$$$
