
     RDKit          3D

 31 32  0  0  0  0  0  0  0  0999 V2000
   -1.6235    1.3328    0.3411 C   0  0  0  0  0  0  0  0  0  0  0  0
   -1.6986    2.6577    0.2702 C   0  0  0  0  0  0  0  0  0  0  0  0
   -2.9715    3.3391   -0.1329 C   0  0  0  0  0  2  0  0  0  0  0  0
   -0.5530    3.5647    0.5783 C   0  0  0  0  0  0  0  0  0  0  0  0
   -0.0324    4.2617   -0.6426 C   0  0  0  0  0  0  0  0  0  0  0  0
    1.2901    5.3976   -0.0918 S   0  0  0  0  0  0  0  0  0  0  0  0
    2.9088    4.6654   -0.4532 C   0  0  0  0  0  0  0  0  0  0  0  0
    3.0849    3.3161    0.1975 C   0  0  0  0  0  3  0  0  0  0  0  0
    3.9335    2.4735   -0.7216 C   0  0  0  0  0  3  0  0  0  0  0  0
    4.6233    1.3480    0.0324 C   0  0  0  0  0  3  0  0  0  0  0  0
    4.6079    0.1317   -0.8457 C   0  0  0  0  0  3  0  0  0  0  0  0
    4.4348   -1.0929   -0.0139 C   0  0  0  0  0  0  0  0  0  0  0  0
    3.8411   -2.1310   -0.5551 C   0  0  0  0  0  0  0  0  0  0  0  0
    3.6443   -3.3753    0.2322 C   0  0  0  0  0  3  0  0  0  0  0  0
    2.1624   -3.7844    0.2528 C   0  0  1  0  0  0  0  0  0  0  0  0
    1.7597   -3.8788    1.6754 C   0  0  0  0  0  2  0  0  0  0  0  0
    1.4339   -2.8612   -0.6170 C   0  0  0  0  0  0  0  0  0  0  0  0
   -0.0255   -2.7605   -0.5378 C   0  0  1  0  0  0  0  0  0  0  0  0
   -0.7391   -3.5459    0.4926 C   0  0  0  0  0  0  0  0  0  0  0  0
   -0.5291   -5.0353    0.3602 C   0  0  0  0  0  2  0  0  0  0  0  0
   -0.4401   -1.3325   -0.4738 C   0  0  1  0  0  0  0  0  0  0  0  0
   -1.6675   -1.0162   -1.2841 C   0  0  0  0  0  3  0  0  0  0  0  0
   -2.8593   -0.6925   -0.4206 C   0  0  1  0  0  0  0  0  0  0  0  0
   -2.9157   -1.5834    0.8093 C   0  0  0  0  0  0  0  0  0  0  0  0
   -4.0907   -1.1956    1.5677 N   0  0  0  0  0  0  0  0  0  0  0  0
   -5.3152   -1.5502    0.8494 C   0  0  0  0  0  2  0  0  0  0  0  0
   -2.9353    0.7486   -0.0266 C   0  0  2  0  0  0  0  0  0  0  0  0
   -3.6161    1.6153   -1.0778 C   0  0  0  0  0  3  0  0  0  0  0  0
   -4.9379    0.9570   -1.4068 C   0  0  0  0  0  2  0  0  0  0  0  0
   -0.4622   -0.7359    0.8966 C   0  0  0  0  0  3  0  0  0  0  0  0
   -0.3120    0.7623    0.7456 C   0  0  0  0  0  3  0  0  0  0  0  0
  1  2  2  3
  2  3  1  0
  2  4  1  0
  4  5  1  0
  5  6  1  0
  6  7  1  0
  7  8  1  0
  8  9  1  0
  9 10  1  0
 10 11  1  0
 11 12  1  0
 12 13  2  3
 13 14  1  0
 14 15  1  0
 15 16  1  1
 15 17  1  0
 17 18  1  0
 18 19  1  1
 19 20  1  0
 18 21  1  0
 21 22  1  1
 22 23  1  0
 23 24  1  1
 24 25  1  0
 25 26  1  0
 23 27  1  0
 27 28  1  6
 28 29  1  0
 21 30  1  0
 30 31  1  0
 27  1  1  0
 31  1  1  0
M  RAD  8   3   3   8   2   9   2  10   2  11   2  14   2  16   3  20   3
M  RAD  6  22   2  26   3  28   2  29   3  30   2  31   2
M  END
$$$$
