
     RDKit          3D

 16 15  0  0  0  0  0  0  0  0999 V2000
    4.3463    2.4548   -0.4099 C   0  0  0  0  0  0  0  0  0  0  0  0
    3.3842    1.3548   -0.6419 C   0  0  0  0  0  0  0  0  0  0  0  0
    2.8550    1.2538   -1.7718 O   0  0  0  0  0  0  0  0  0  0  0  0
    3.0325    0.4108    0.3522 N   0  0  0  0  0  0  0  0  0  0  0  0
    2.0896   -0.6235    0.0416 C   0  0  0  0  0  3  0  0  0  0  0  0
    0.7824   -0.0129   -0.3931 C   0  0  0  0  0  0  0  0  0  0  0  0
   -0.0874    0.1951    0.8076 C   0  0  0  0  0  0  0  0  0  0  0  0
   -0.4098   -1.0628    1.5591 C   0  0  0  0  0  0  0  0  0  0  0  0
   -1.1313   -2.0846    0.7417 C   0  0  0  0  0  0  0  0  0  0  0  0
   -2.4103   -1.7254    0.1880 C   0  0  0  0  0  0  0  0  0  0  0  0
   -3.1306   -0.6696    0.1852 C   0  0  0  0  0  0  0  0  0  0  0  0
   -2.9134    0.6504    0.7800 C   0  0  0  0  0  0  0  0  0  0  0  0
   -2.9279    1.6748   -0.3015 C   0  0  0  0  0  0  0  0  0  0  0  0
   -2.7639    2.8518   -0.0355 O   0  0  0  0  0  0  0  0  0  0  0  0
   -0.2198   -2.4910   -0.3950 C   0  0  0  0  0  0  0  0  0  0  0  0
   -0.4956   -2.1764   -1.5307 O   0  0  0  0  0  0  0  0  0  0  0  0
  1  2  1  0
  2  3  2  0
  2  4  1  0
  4  5  1  0
  5  6  1  0
  6  7  1  0
  7  8  1  0
  8  9  1  0
  9 10  1  0
 10 11  2  3
 11 12  1  0
 12 13  1  0
 13 14  2  0
  9 15  1  0
 15 16  2  0
M  RAD  1   5   2
M  END
$$$$
