
     RDKit          3D

 15 16  0  0  0  0  0  0  0  0999 V2000
   -0.1258    0.7724   -1.9385 C   0  0  0  0  0  0  0  0  0  0  0  0
    0.0719    1.0011   -0.4508 C   0  0  1  0  0  0  0  0  0  0  0  0
   -1.1849    1.5955    0.1559 C   0  0  0  0  0  0  0  0  0  0  0  0
   -2.3371    0.8041   -0.4558 C   0  0  2  0  0  0  0  0  0  0  0  0
   -3.5678    1.2961   -0.0364 O   0  0  0  0  0  0  0  0  0  0  0  0
   -2.1885   -0.6695   -0.2166 C   0  0  2  0  0  0  0  0  0  0  0  0
   -3.3349   -1.1189    0.4358 O   0  0  0  0  0  0  0  0  0  0  0  0
   -0.9705   -1.0582    0.5413 C   0  0  1  0  0  0  0  0  0  0  0  0
   -0.7875   -2.4326    0.4195 O   0  0  0  0  0  0  0  0  0  0  0  0
    0.2736   -0.3448    0.1810 C   0  0  1  0  0  0  0  0  0  0  0  0
    1.1393   -1.1782   -0.7709 C   0  0  0  0  0  3  0  0  0  0  0  0
    2.4745   -0.5073   -0.9924 C   0  0  0  0  0  3  0  0  0  0  0  0
    3.1269   -0.0669    0.2857 C   0  0  0  0  0  0  0  0  0  0  0  0
    4.3386    0.5639    0.3561 C   0  0  0  0  0  0  0  0  0  0  0  0
    3.0722    1.3433    0.5439 O   0  0  0  0  0  0  0  0  0  0  0  0
  2  1  1  6
  2  3  1  0
  3  4  1  0
  4  5  1  1
  4  6  1  0
  6  7  1  1
  6  8  1  0
  8  9  1  6
  8 10  1  0
 10 11  1  6
 11 12  1  0
 12 13  1  0
 13 14  1  0
 13 15  1  0
 10  2  1  0
 15 14  1  0
M  RAD  2  11   2  12   2
M  END
$$$$
