
     RDKit          3D

 23 22  0  0  0  0  0  0  0  0999 V2000
   -3.9612    2.0546    0.8141 C   0  0  0  0  0  0  0  0  0  0  0  0
   -2.4873    1.6649    0.7745 C   0  0  0  0  0  0  0  0  0  0  0  0
   -1.6839    2.9229    0.8915 C   0  0  0  0  0  0  0  0  0  0  0  0
   -2.2733    0.9553   -0.5142 C   0  0  0  0  0  0  0  0  0  0  0  0
   -1.8042   -0.2829   -0.5824 C   0  0  0  0  0  0  0  0  0  0  0  0
   -1.4562   -1.0567    0.6207 C   0  0  0  0  0  0  0  0  0  0  0  0
   -0.5317   -2.0728    0.2905 O   0  0  0  0  0  0  0  0  0  0  0  0
    0.7048   -1.8498   -0.2472 C   0  0  0  0  0  0  0  0  0  0  0  0
    1.3813   -0.7622    0.1357 C   0  0  0  0  0  0  0  0  0  0  0  0
    0.7235    0.3669    1.2967 Cl  0  0  0  0  0  0  0  0  0  0  0  0
    2.6991   -0.5853   -0.4801 C   0  0  0  0  0  0  0  0  0  0  0  0
    3.4440    0.4520   -0.1708 C   0  0  0  0  0  0  0  0  0  0  0  0
    4.7712    0.5941   -0.8164 C   0  0  0  0  0  0  0  0  0  0  0  0
    5.0332   -0.5136   -1.7404 C   0  0  0  0  0  0  0  0  0  0  0  0
    6.0482   -0.6072   -2.3760 O   0  0  0  0  0  0  0  0  0  0  0  0
    2.9834    1.3913    0.7464 O   0  0  0  0  0  0  0  0  0  0  0  0
    3.1594    2.7832    0.5311 C   0  0  0  0  0  0  0  0  0  0  0  0
    2.4292    3.6139    1.9346 Cl  0  0  0  0  0  0  0  0  0  0  0  0
   -2.5805   -1.4886    1.4458 C   0  0  0  0  0  0  0  0  0  0  0  0
   -3.5978   -2.3699    0.8885 C   0  0  0  0  0  0  0  0  0  0  0  0
   -4.4133   -2.0051   -0.2588 C   0  0  0  0  0  0  0  0  0  0  0  0
   -3.8132   -1.7565   -1.4577 O   0  0  0  0  0  0  0  0  0  0  0  0
   -4.7748   -1.4484   -2.3285 O   0  0  0  0  0  0  0  0  0  0  0  0
  1  2  1  0
  2  3  1  0
  2  4  1  0
  4  5  2  3
  5  6  1  0
  6  7  1  0
  7  8  1  0
  8  9  2  3
  9 10  1  0
  9 11  1  0
 11 12  2  3
 12 13  1  0
 13 14  1  0
 14 15  2  0
 12 16  1  0
 16 17  1  0
 17 18  1  0
  6 19  1  0
 19 20  1  0
 20 21  1  0
 21 22  1  0
 22 23  1  0
M  END
$$$$
