
     RDKit          3D

 34 37  0  0  0  0  0  0  0  0999 V2000
   -1.1995   -1.0682   -1.4784 N   0  0  0  0  0  0  0  0  0  0  0  0
    0.1146   -1.3270   -1.1284 C   0  0  0  0  0  0  0  0  0  0  0  0
    0.9926   -2.1617   -1.5789 C   0  0  0  0  0  0  0  0  0  0  0  0
    2.3507   -2.2022   -0.9814 C   0  0  0  0  0  0  0  0  0  0  0  0
    3.0848   -1.1194   -1.2541 C   0  0  0  0  0  0  0  0  0  0  0  0
    4.4301   -0.8755   -0.8095 C   0  0  0  0  0  0  0  0  0  0  0  0
    5.4809   -0.9401   -1.6842 C   0  0  0  0  0  0  0  0  0  0  0  0
    6.7770   -0.7055   -1.3015 C   0  0  0  0  0  0  0  0  0  0  0  0
    7.0255   -0.3927    0.0173 C   0  0  0  0  0  0  0  0  0  0  0  0
    5.9715   -0.3233    0.9156 C   0  0  0  0  0  0  0  0  0  0  0  0
    4.6838   -0.5561    0.5359 C   0  0  0  0  0  0  0  0  0  0  0  0
    3.5383   -0.4808    1.4634 C   0  0  0  0  0  0  0  0  0  0  0  0
    3.4214    0.8154    2.0826 N   0  0  0  0  0  0  0  0  0  0  0  0
    2.9199    1.9884    1.4038 C   0  0  0  0  0  0  0  0  0  0  0  0
    3.6678    3.1410    1.3694 C   0  0  0  0  0  0  0  0  0  0  0  0
    3.2624    4.2895    0.7477 C   0  0  0  0  0  0  0  0  0  0  0  0
    2.0411    4.3106    0.1168 C   0  0  0  0  0  0  0  0  0  0  0  0
    1.3081    3.1713    0.1543 C   0  0  0  0  0  0  0  0  0  0  0  0
    1.6614    1.9755    0.7667 C   0  0  0  0  0  0  0  0  0  0  0  0
    0.9418    0.7803    0.8374 C   0  0  0  0  0  0  0  0  0  0  0  0
   -0.0859    0.1252    0.7321 C   0  0  0  0  0  0  0  0  0  0  0  0
   -1.4648    0.3500    0.3743 C   0  0  0  0  0  0  0  0  0  0  0  0
   -2.0434   -0.2081   -0.6875 C   0  0  0  0  0  0  0  0  0  0  0  0
   -3.7865    0.0683   -1.1503 P   0  0  0  0  0  0  0  0  0  0  0  0
   -4.8293   -1.3671   -0.8146 C   0  0  0  0  0  0  0  0  0  0  0  0
   -4.6301   -2.5349   -1.5301 C   0  0  0  0  0  0  0  0  0  0  0  0
   -5.4021   -3.6398   -1.3007 C   0  0  0  0  0  0  0  0  0  0  0  0
   -6.3852   -3.5872   -0.3492 C   0  0  0  0  0  0  0  0  0  0  0  0
   -6.5975   -2.4187    0.3789 C   0  0  0  0  0  0  0  0  0  0  0  0
   -5.8039   -1.3223    0.1253 C   0  0  0  0  0  0  0  0  0  0  0  0
   -6.0282   -0.1115    0.8839 C   0  0  0  0  0  0  0  0  0  0  0  0
   -5.2952    0.9417    0.6680 C   0  0  0  0  0  0  0  0  0  0  0  0
   -5.4751    2.1933    1.4030 C   0  0  0  0  0  0  0  0  0  0  0  0
   -4.6470    3.1917    1.0726 C   0  0  0  0  0  0  0  0  0  0  0  0
  1  2  1  0
  2  3  2  3
  3  4  1  0
  4  5  2  3
  5  6  1  0
  6  7  2  0
  7  8  1  0
  8  9  2  0
  9 10  1  0
 10 11  2  0
 11 12  1  0
 12 13  1  0
 13 14  1  0
 14 15  2  0
 15 16  1  0
 16 17  2  0
 17 18  1  0
 18 19  2  0
 19 20  1  0
 20 21  2  3
 21 22  1  0
 22 23  2  3
 23 24  1  0
 24 25  1  0
 25 26  2  0
 26 27  1  0
 27 28  2  0
 28 29  1  0
 29 30  2  0
 30 31  1  0
 31 32  2  3
 32 33  1  0
 33 34  2  0
 23  1  1  0
 11  6  1  0
 19 14  1  0
 30 25  1  0
M  END
$$$$
