
     RDKit          3D

 35 34  0  0  0  0  0  0  0  0999 V2000
   -8.2467    2.2665   -2.4916 O   0  0  0  0  0  0  0  0  0  0  0  0
   -8.8745    2.1104   -1.4056 C   0  0  0  0  0  0  0  0  0  0  0  0
  -10.2488    2.3924   -1.3374 O   0  0  0  0  0  0  0  0  0  0  0  0
   -8.1708    1.6372   -0.2212 C   0  0  0  0  0  0  0  0  0  0  0  0
   -6.8874    1.3759   -0.2886 C   0  0  0  0  0  0  0  0  0  0  0  0
   -6.2372    0.9044    0.9340 C   0  0  0  0  0  0  0  0  0  0  0  0
   -4.9472    0.6309    0.9067 C   0  0  0  0  0  0  0  0  0  0  0  0
   -4.2597    0.1536    2.1231 C   0  0  0  0  0  0  0  0  0  0  0  0
   -5.2072    0.0454    3.2919 C   0  0  0  0  0  0  0  0  0  0  0  0
   -4.4924   -0.4396    4.5119 C   0  0  0  0  0  0  0  0  0  0  0  0
   -4.1973    0.7960   -0.3167 C   0  0  0  0  0  0  0  0  0  0  0  0
   -2.9099    0.5402   -0.3979 C   0  0  0  0  0  0  0  0  0  0  0  0
   -2.2819    0.7508   -1.6939 C   0  0  0  0  0  0  0  0  0  0  0  0
   -0.9940    0.5086   -1.8124 C   0  0  0  0  0  0  0  0  0  0  0  0
   -0.3864    0.7406   -3.1674 C   0  0  0  0  0  0  0  0  0  0  0  0
   -0.2080    0.0339   -0.6939 C   0  0  0  0  0  0  0  0  0  0  0  0
    1.0898   -0.2173   -0.7777 C   0  0  0  0  0  0  0  0  0  0  0  0
    1.7520    0.0004   -2.0695 C   0  0  0  0  0  0  0  0  0  0  0  0
    2.3597   -1.1839   -2.6312 N   0  0  0  0  0  0  0  0  0  0  0  0
    3.4819   -1.5555   -1.7939 C   0  0  0  0  0  0  0  0  0  0  0  0
    2.9631   -1.8258   -0.5224 O   0  0  0  0  0  0  0  0  0  0  0  0
    4.0111   -2.1915    0.2857 C   0  0  0  0  0  0  0  0  0  0  0  0
    4.6800   -3.4117   -0.2997 C   0  0  0  0  0  0  0  0  0  0  0  0
    4.9992   -1.0547    0.3819 C   0  0  0  0  0  0  0  0  0  0  0  0
    4.2961    0.0391    0.9433 O   0  0  0  0  0  0  0  0  0  0  0  0
    3.8333   -0.3659    2.1997 C   0  0  0  0  0  3  0  0  0  0  0  0
    5.1495   -0.9064    3.2956 S   0  0  0  0  0  0  0  0  0  0  0  0
    6.7369   -0.7142    2.4084 C   0  0  0  0  0  0  0  0  0  0  0  0
    6.9662    0.7690    2.1994 C   0  0  0  0  0  0  0  0  0  0  0  0
    7.0161    1.5006    3.8766 S   0  0  0  0  0  0  0  0  0  0  0  0
    7.2836    3.2430    3.7512 C   0  0  0  0  0  0  0  0  0  0  0  0
    7.9473    3.7881    2.9137 O   0  0  0  0  0  0  0  0  0  0  0  0
    1.3823   -2.2504   -2.5490 C   0  0  0  0  0  0  0  0  0  0  0  0
    1.8664   -3.5549   -3.0925 C   0  0  0  0  0  0  0  0  0  0  0  0
    0.7347   -4.5554   -2.9338 C   0  0  0  0  0  0  0  0  0  0  0  0
  1  2  2  0
  2  3  1  0
  2  4  1  0
  4  5  2  3
  5  6  1  0
  6  7  2  3
  7  8  1  0
  8  9  1  0
  9 10  1  0
  7 11  1  0
 11 12  2  3
 12 13  1  0
 13 14  2  3
 14 15  1  0
 14 16  1  0
 16 17  2  3
 17 18  1  0
 18 19  1  0
 19 20  1  0
 20 21  1  0
 21 22  1  0
 22 23  1  0
 22 24  1  0
 24 25  1  0
 25 26  1  0
 26 27  1  0
 27 28  1  0
 28 29  1  0
 29 30  1  0
 30 31  1  0
 31 32  2  0
 19 33  1  0
 33 34  1  0
 34 35  1  0
M  RAD  1  26   2
M  END
$$$$
