
     RDKit          3D

 27 27  0  0  0  0  0  0  0  0999 V2000
   -7.0210    0.4906    0.1531 C   0  0  0  0  0  0  0  0  0  0  0  0
   -5.8101   -0.3023    0.6215 C   0  0  0  0  0  0  0  0  0  0  0  0
   -6.1701   -1.7719    0.5624 C   0  0  0  0  0  0  0  0  0  0  0  0
   -4.7047   -0.0505   -0.3842 C   0  0  0  0  0  0  0  0  0  0  0  0
   -4.3610    1.4224   -0.4611 C   0  0  0  0  0  0  0  0  0  0  0  0
   -3.2557    1.5731   -1.4838 C   0  0  0  0  0  0  0  0  0  0  0  0
   -2.8446    3.0118   -1.6304 C   0  0  1  0  0  0  0  0  0  0  0  0
   -4.0010    3.8648   -2.0765 C   0  0  0  0  0  0  0  0  0  0  0  0
   -2.2477    3.4804   -0.3203 C   0  0  0  0  0  3  0  0  0  0  0  0
   -1.0586    2.6178   -0.0231 C   0  0  0  0  0  0  0  0  0  0  0  0
   -1.4464    1.1410    0.0997 C   0  0  0  0  0  0  0  0  0  0  0  0
   -0.1753    0.3702    0.3985 C   0  0  0  0  0  0  0  0  0  0  0  0
    0.3876    0.9021    1.6891 C   0  0  0  0  0  0  0  0  0  0  0  0
   -0.5354   -1.0968    0.5004 C   0  0  0  0  0  0  0  0  0  0  0  0
    0.7982    0.5958   -0.7035 C   0  0  0  0  0  0  0  0  0  0  0  0
    1.2707   -0.4124   -1.4400 C   0  0  0  0  0  0  0  0  0  0  0  0
    0.9107   -1.7969   -1.2675 C   0  0  0  0  0  0  0  0  0  0  0  0
    1.8897   -2.8177   -1.0708 C   0  0  0  0  0  0  0  0  0  0  0  0
    2.8447   -2.8748    0.0335 C   0  0  0  0  0  0  0  0  0  0  0  0
    3.6221   -4.1450   -0.1973 N   0  0  0  0  0  0  0  0  0  0  0  0
    2.1116   -3.0542    1.3636 C   0  0  0  0  0  0  0  0  0  0  0  0
    3.8984   -1.8306    0.1241 C   0  0  0  0  0  0  0  0  0  0  0  0
    3.5045   -0.5519    0.3566 O   0  0  0  0  0  0  0  0  0  0  0  0
    4.4865    0.3421    0.4283 N   0  0  0  0  0  0  0  0  0  0  0  0
    5.1752    0.6254    1.6501 C   0  0  0  0  0  3  0  0  0  0  0  0
    5.8820   -0.2125    0.6188 C   0  0  0  0  0  0  0  0  0  0  0  0
    6.8496    0.4802   -0.3439 C   0  0  0  0  0  2  0  0  0  0  0  0
  1  2  1  0
  2  3  1  0
  2  4  1  0
  4  5  1  0
  5  6  1  0
  6  7  1  0
  7  8  1  1
  7  9  1  0
  9 10  1  0
 10 11  1  0
 11 12  1  0
 12 13  1  0
 12 14  1  0
 12 15  1  0
 15 16  2  3
 16 17  1  0
 17 18  1  0
 18 19  1  0
 19 20  1  0
 19 21  1  0
 19 22  1  0
 22 23  1  0
 23 24  1  0
 24 25  1  0
 25 26  1  0
 26 27  1  0
 26 24  1  0
M  RAD  3   9   2  25   2  27   3
M  END
$$$$
