
     RDKit          2D

 35 37  0  0  0  0  0  0  0  0999 V2000
    7.2760   -5.1962    0.0000 O   0  0  0  0  0  0  0  0  0  0  0  0
    8.0260   -3.8971    0.0000 C   0  0  0  0  0  0  0  0  0  0  0  0
    7.2760   -2.5981    0.0000 C   0  0  0  0  0  0  0  0  0  0  0  0
    5.7760   -2.5981    0.0000 C   0  0  0  0  0  0  0  0  0  0  0  0
    5.0260   -1.2990    0.0000 C   0  0  0  0  0  0  0  0  0  0  0  0
    3.5260   -1.2990    0.0000 C   0  0  0  0  0  0  0  0  0  0  0  0
    2.7760    0.0000    0.0000 C   0  0  0  0  0  0  0  0  0  0  0  0
    1.2760    0.0000    0.0000 C   0  0  0  0  0  0  0  0  0  0  0  0
    0.3943    1.2135    0.0000 N   0  0  0  0  0  0  0  0  0  0  0  0
   -1.0323    0.7500    0.0000 C   0  0  0  0  0  0  0  0  0  0  0  0
   -2.2458   -0.1317    0.0000 C   0  0  0  0  0  0  0  0  0  0  0  0
   -3.7130    0.1802    0.0000 C   0  0  0  0  0  0  0  0  0  0  0  0
   -4.4630   -1.1188    0.0000 C   0  0  0  0  0  0  0  0  0  0  0  0
   -3.4593   -2.2336    0.0000 C   0  0  0  0  0  0  0  0  0  0  0  0
   -3.7712   -3.7008    0.0000 Cl  0  0  0  0  0  0  0  0  0  0  0  0
   -2.0890   -1.6235    0.0000 S   0  0  0  0  0  0  0  0  0  0  0  0
   -1.0323   -0.7500    0.0000 N   0  0  0  0  0  0  0  0  0  0  0  0
    0.3943   -1.2135    0.0000 C   0  0  0  0  0  0  0  0  0  0  0  0
   -0.7187   -2.2336    0.0000 C   0  0  0  0  0  0  0  0  0  0  0  0
    9.5260   -3.8971    0.0000 N   0  0  0  0  0  0  0  0  0  0  0  0
   10.2760   -5.1962    0.0000 C   0  0  0  0  0  0  0  0  0  0  0  0
   11.7760   -5.1962    0.0000 C   0  0  0  0  0  0  0  0  0  0  0  0
   12.5260   -6.4952    0.0000 C   0  0  0  0  0  0  0  0  0  0  0  0
   14.0260   -6.4952    0.0000 C   0  0  0  0  0  0  0  0  0  0  0  0
   14.7760   -5.1962    0.0000 N   0  0  0  0  0  0  0  0  0  0  0  0
   16.2760   -5.1962    0.0000 C   0  0  0  0  0  0  0  0  0  0  0  0
   17.0260   -3.8971    0.0000 C   0  0  0  0  0  0  0  0  0  0  0  0
   18.5260   -3.8971    0.0000 C   0  0  0  0  0  0  0  0  0  0  0  0
   19.2760   -2.5981    0.0000 C   0  0  0  0  0  0  0  0  0  0  0  0
   20.7760   -2.5981    0.0000 C   0  0  0  0  0  0  0  0  0  0  0  0
   21.5260   -1.2990    0.0000 C   0  0  0  0  0  0  0  0  0  0  0  0
   23.0260   -1.2990    0.0000 C   0  0  0  0  0  0  0  0  0  0  0  0
   23.7760   -0.0000    0.0000 C   0  0  0  0  0  0  0  0  0  0  0  0
   14.7760   -7.7942    0.0000 C   0  0  0  0  0  0  0  0  0  0  0  0
   16.2760   -7.7942    0.0000 N   0  0  0  0  0  0  0  0  0  0  0  0
  1  2  2  0
  2  3  1  0
  3  4  1  0
  4  5  1  0
  5  6  2  3
  6  7  1  0
  7  8  2  3
  8  9  1  0
  9 10  1  0
 10 11  1  0
 11 12  2  0
 12 13  1  0
 13 14  2  0
 14 15  1  0
 14 16  1  0
 10 17  2  0
 17 18  1  0
 18 19  2  0
  2 20  1  0
 20 21  1  0
 21 22  1  0
 22 23  1  0
 23 24  1  0
 24 25  1  0
 25 26  1  0
 26 27  2  3
 27 28  1  0
 28 29  2  3
 29 30  1  0
 30 31  2  3
 31 32  1  0
 32 33  2  0
 24 34  1  0
 34 35  1  0
 18  8  1  0
 16 11  1  0
 19 16  1  0
M  END
$$$$
