
     RDKit          3D

 50 53  0  0  0  0  0  0  0  0999 V2000
   -0.7631    2.3817    4.2101 C   0  0  0  0  0  0  0  0  0  0  0  0
   -1.2543    1.5985    3.1201 C   0  0  0  0  0  0  0  0  0  0  0  0
   -1.2341    0.8422    2.2761 C   0  0  0  0  0  0  0  0  0  0  0  0
   -0.9900   -0.1353    1.2784 C   0  0  0  0  0  0  0  0  0  0  0  0
    0.0020   -1.0332    0.7088 C   0  0  0  0  0  0  0  0  0  0  0  0
   -1.9230   -0.5930    0.3620 C   0  0  0  0  0  0  0  0  0  0  0  0
   -3.2982   -0.1909    0.2318 C   0  0  0  0  0  0  0  0  0  0  0  0
   -4.2613   -0.3487   -0.3579 C   0  0  0  0  0  0  0  0  0  0  0  0
   -5.3048   -0.6609   -1.1569 C   0  0  0  0  0  0  0  0  0  0  0  0
   -6.5378   -0.2045   -1.1793 C   0  0  0  0  0  0  0  0  0  0  0  0
   -7.2888    1.0384   -0.1262 S   0  0  0  0  0  0  0  0  0  0  0  0
   -9.0219    0.6342   -0.6099 C   0  0  0  0  0  0  0  0  0  0  0  0
   -9.8507    0.1830    0.3867 C   0  0  0  0  0  0  0  0  0  0  0  0
  -10.3349   -0.4110    1.3430 C   0  0  0  0  0  0  0  0  0  0  0  0
   -9.5004   -1.4068    1.9824 O   0  0  0  0  0  0  0  0  0  0  0  0
  -11.5582   -0.2491    1.8760 F   0  0  0  0  0  0  0  0  0  0  0  0
   -7.6050   -0.6092   -2.0384 C   0  0  0  0  0  0  0  0  0  0  0  0
   -8.7802   -0.2227   -1.7823 C   0  0  0  0  0  0  0  0  0  0  0  0
   -0.9293   -1.4283   -0.2244 C   0  0  0  0  0  0  0  0  0  0  0  0
   -1.2169   -2.7045   -0.7702 C   0  0  0  0  0  0  0  0  0  0  0  0
   -0.5807   -3.8713   -0.5369 C   0  0  0  0  0  0  0  0  0  0  0  0
    0.5493   -3.8867    0.3793 C   0  0  0  0  0  0  0  0  0  0  0  0
   -1.1131   -5.0981   -1.2269 C   0  0  0  0  0  0  0  0  0  0  0  0
   -2.6184   -4.9984   -1.2089 C   0  0  0  0  0  0  0  0  0  0  0  0
   -3.1955   -3.8270   -1.4140 C   0  0  0  0  0  0  0  0  0  0  0  0
   -2.4115   -2.8018   -1.6752 C   0  0  0  0  0  0  0  0  0  0  0  0
   -2.5972   -1.9067   -2.7679 C   0  0  0  0  0  0  0  0  0  0  0  0
   -1.7785   -0.9713   -3.2074 C   0  0  0  0  0  0  0  0  0  0  0  0
   -0.5049   -0.6823   -2.6845 C   0  0  0  0  0  0  0  0  0  0  0  0
    0.3566    0.2531   -3.0486 C   0  0  0  0  0  0  0  0  0  0  0  0
    1.6402    0.2906   -2.3290 C   0  0  0  0  0  0  0  0  0  0  0  0
    2.6833    0.3140   -1.7214 C   0  0  0  0  0  0  0  0  0  0  0  0
    3.8276    0.3261   -1.0763 C   0  0  0  0  0  0  0  0  0  0  0  0
    5.1235    0.6088   -0.9944 C   0  0  0  0  0  0  0  0  0  0  0  0
    5.9359   -0.4378   -0.7139 C   0  0  0  0  0  0  0  0  0  0  0  0
    5.0994   -1.6852   -0.5813 C   0  0  0  0  0  0  0  0  0  0  0  0
    7.3756   -0.6928   -0.4224 C   0  0  0  0  0  0  0  0  0  0  0  0
    7.5622   -0.1612    1.0261 C   0  0  0  0  0  0  0  0  0  0  0  0
    7.3162    0.9942    1.5946 C   0  0  0  0  0  0  0  0  0  0  0  0
    7.6883    0.9596    2.9948 C   0  0  0  0  0  0  0  0  0  0  0  0
    7.5149    2.0561    3.7327 C   0  0  0  0  0  0  0  0  0  0  0  0
    6.9764    3.2780    3.2020 C   0  0  0  0  0  0  0  0  0  0  0  0
    6.9019    4.3769    3.9291 C   0  0  0  0  0  0  0  0  0  0  0  0
    6.4572    5.1371    4.8312 O   0  0  0  0  0  0  0  0  0  0  0  0
    6.7345    2.2161    1.0699 C   0  0  0  0  0  0  0  0  0  0  0  0
    6.0657    2.6057    0.0182 C   0  0  0  0  0  0  0  0  0  0  0  0
    5.5268    2.0385   -1.2128 C   0  0  0  0  0  0  0  0  0  0  0  0
    6.6059    2.0808   -2.2806 C   0  0  0  0  0  0  0  0  0  0  0  0
    4.3119    2.7818   -1.6601 C   0  0  0  0  0  0  0  0  0  0  0  0
    4.1970    3.9925   -1.5454 O   0  0  0  0  0  0  0  0  0  0  0  0
  1  2  1  0
  2  3  2  3
  3  4  1  0
  4  5  1  0
  4  6  2  0
  6  7  1  0
  7  8  2  3
  8  9  1  0
  9 10  2  3
 10 11  1  0
 11 12  1  0
 12 13  1  0
 13 14  2  3
 14 15  1  0
 14 16  1  0
 10 17  1  0
 17 18  2  0
  6 19  1  0
 19 20  1  0
 20 21  2  0
 21 22  1  0
 21 23  1  0
 23 24  1  0
 24 25  2  0
 25 26  2  0
 26 27  1  0
 27 28  2  3
 28 29  1  0
 29 30  2  3
 30 31  1  0
 31 32  3  0
 32 33  1  0
 33 34  1  0
 34 35  2  3
 35 36  1  0
 35 37  1  0
 37 38  1  0
 38 39  2  3
 39 40  1  0
 40 41  2  3
 41 42  1  0
 42 43  2  0
 43 44  2  0
 39 45  1  0
 45 46  2  3
 46 47  1  0
 47 48  1  0
 47 49  1  0
 49 50  2  0
 19  5  1  0
 18 12  1  0
 26 20  1  0
 47 34  1  0
M  END
$$$$
