
     RDKit          3D

 46 49  0  0  0  0  0  0  0  0999 V2000
   12.2580   -3.8972    2.2084 C   0  0  0  0  0  0  0  0  0  0  0  0
   11.3465   -2.6948    2.2084 C   0  0  2  0  0  0  0  0  0  0  0  0
    9.7519   -3.1395    2.9422 S   0  0  0  0  0  0  0  0  0  0  0  0
   11.1809   -2.1699    0.7996 C   0  0  0  0  0  0  0  0  0  0  0  0
   10.5827   -3.2496   -0.0642 C   0  0  0  0  0  0  0  0  0  0  0  0
    9.2808   -3.6853    0.4115 N   0  0  0  0  0  0  0  0  0  0  0  0
    8.1764   -2.7977    0.3379 C   0  0  0  0  0  0  0  0  0  0  0  0
    8.3165   -1.5040    0.0961 C   0  0  0  0  0  0  0  0  0  0  0  0
    7.1454   -0.6439    0.0322 C   0  0  0  0  0  0  0  0  0  0  0  0
    7.2783    0.6413   -0.2077 C   0  0  0  0  0  0  0  0  0  0  0  0
    8.6114    1.2183   -0.4133 C   0  0  0  0  0  0  0  0  0  0  0  0
    8.5702    2.6653   -0.6701 C   0  0  0  0  0  0  0  0  0  0  0  0
    7.4937    3.4007   -0.7202 C   0  0  0  0  0  0  0  0  0  0  0  0
    6.1945    2.7889   -0.5116 C   0  0  0  0  0  0  0  0  0  0  0  0
    6.1019    1.5126   -0.2755 C   0  0  0  0  0  0  0  0  0  0  0  0
    4.7986    0.8884   -0.0647 C   0  0  0  0  0  0  0  0  0  0  0  0
    4.6767   -0.3482    0.1695 O   0  0  0  0  0  0  0  0  0  0  0  0
    3.5881    1.7216   -0.1265 C   0  0  0  0  0  0  0  0  0  0  0  0
    2.3279    0.9986    0.1201 C   0  0  0  0  0  0  0  0  0  0  0  0
    2.2825   -0.2892    0.3877 C   0  0  0  0  0  0  0  0  0  0  0  0
    0.9562   -0.9497    0.6266 C   0  0  0  0  0  0  0  0  0  0  0  0
   -0.1176    0.0792    0.4850 C   0  0  0  0  0  0  0  0  0  0  0  0
   -0.1987    0.7652   -0.8236 C   0  0  0  0  0  0  0  0  0  0  0  0
   -0.9025    0.3475    1.4817 C   0  0  0  0  0  0  0  0  0  0  0  0
   -2.0032    1.2801    1.6068 C   0  0  0  0  0  0  0  0  0  0  0  0
   -2.4395    1.9576    0.3475 C   0  0  0  0  0  0  0  0  0  0  0  0
   -3.0564    0.7859   -0.8290 S   0  0  0  0  0  0  0  0  0  0  0  0
   -4.6149   -0.0580   -0.3591 C   0  0  0  0  0  0  0  0  0  0  0  0
   -5.1276    0.2195    0.7650 C   0  0  0  0  0  0  0  0  0  0  0  0
   -5.8825    0.3623    1.9567 C   0  0  0  0  0  0  0  0  0  0  0  0
   -7.3442    0.9446    1.8805 C   0  0  0  0  0  0  0  0  0  0  0  0
   -7.4957    0.9650    0.4840 C   0  0  0  0  0  0  0  0  0  0  0  0
   -7.1829   -0.2839   -0.0849 C   0  0  0  0  0  0  0  0  0  0  0  0
   -7.9404    2.2394    0.1709 C   0  0  0  0  0  0  0  0  0  0  0  0
   -8.7945    2.6853   -0.8191 C   0  0  0  0  0  0  0  0  0  0  0  0
   -8.8526    2.5004   -2.3108 C   0  0  0  0  0  0  0  0  0  0  0  0
   -8.6539    1.2550   -3.0289 C   0  0  0  0  0  0  0  0  0  0  0  0
   -7.9726    0.0742   -2.3034 C   0  0  0  0  0  0  0  0  0  0  0  0
   -6.7841   -0.0794   -2.8953 C   0  0  0  0  0  0  0  0  0  0  0  0
   -5.7933   -1.1323   -2.4339 C   0  0  0  0  0  0  0  0  0  0  0  0
   -4.9964   -0.9930   -1.4156 C   0  0  0  0  0  0  0  0  0  0  0  0
   -8.3240   -0.1773    2.3768 C   0  0  0  0  0  0  0  0  0  0  0  0
   -9.3654   -0.6428    1.5142 C   0  0  0  0  0  0  0  0  0  0  0  0
   -9.7484   -1.4949    0.5037 C   0  0  0  0  0  0  0  0  0  0  0  0
   -9.1259   -1.4042   -0.9543 C   0  0  0  0  0  0  0  0  0  0  0  0
   -8.2017   -0.6624   -1.1815 C   0  0  0  0  0  0  0  0  0  0  0  0
  2  1  1  6
  2  3  1  0
  2  4  1  0
  4  5  1  0
  5  6  1  0
  6  7  1  0
  7  8  2  3
  8  9  1  0
  9 10  2  3
 10 11  1  0
 11 12  1  0
 12 13  2  0
 13 14  1  0
 14 15  2  0
 15 16  1  0
 16 17  2  0
 16 18  1  0
 18 19  1  0
 19 20  2  3
 20 21  1  0
 21 22  1  0
 22 23  1  0
 22 24  2  3
 24 25  1  0
 25 26  1  0
 26 27  1  0
 27 28  1  0
 28 29  2  3
 29 30  1  0
 30 31  1  0
 31 32  1  0
 32 33  2  3
 32 34  1  0
 34 35  2  3
 35 36  1  0
 36 37  2  3
 37 38  1  0
 38 39  2  3
 39 40  1  0
 40 41  2  3
 31 42  1  0
 42 43  1  0
 43 44  2  3
 44 45  1  0
 45 46  2  3
 15 10  1  0
 41 28  1  0
 46 33  1  0
 46 38  1  0
M  END
$$$$
