
     RDKit          3D

 28 29  0  0  0  0  0  0  0  0999 V2000
   -6.0431    1.1961   -1.1225 C   0  0  0  0  0  0  0  0  0  0  0  0
   -5.0772    1.1599    0.0474 C   0  0  1  0  0  0  0  0  0  0  0  0
   -4.3333   -0.1779   -0.0585 C   0  0  0  0  0  0  0  0  0  0  0  0
   -3.3027   -0.2292    1.0240 C   0  0  2  0  0  0  0  0  0  0  0  0
   -3.7163   -1.1486    1.9850 O   0  0  0  0  0  0  0  0  0  0  0  0
   -3.1129    1.0146    1.6405 O   0  0  0  0  0  0  0  0  0  0  0  0
   -2.7955    1.9116    0.6159 C   0  0  0  0  0  3  0  0  0  0  0  0
   -4.0221    2.2355   -0.2125 C   0  0  1  0  0  0  0  0  0  0  0  0
   -3.6281    2.1189   -1.6689 C   0  0  0  0  0  0  0  0  0  0  0  0
   -2.8382    0.8122   -1.8035 C   0  0  0  0  0  3  0  0  0  0  0  0
   -3.7619   -0.2999   -1.4304 C   0  0  1  0  0  0  0  0  0  0  0  0
   -3.2274   -1.6639   -1.6724 C   0  0  0  0  0  0  0  0  0  0  0  0
   -2.1211   -2.0879   -0.7417 C   0  0  0  0  0  3  0  0  0  0  0  0
   -0.9289   -1.1885   -0.8452 C   0  0  0  0  0  0  0  0  0  0  0  0
    0.1535   -1.6791    0.0657 C   0  0  1  0  0  0  0  0  0  0  0  0
   -0.2968   -1.7000    1.4956 C   0  0  0  0  0  1  0  0  0  0  0  0
    0.5563   -3.0782   -0.4070 C   0  0  0  0  0  0  0  0  0  0  0  0
    1.3705   -0.7683   -0.0761 C   0  0  0  0  0  0  0  0  0  0  0  0
    2.4793   -1.2635    0.8507 C   0  0  1  0  0  0  0  0  0  0  0  0
    2.7632   -2.5818    0.4258 O   0  0  0  0  0  0  0  0  0  0  0  0
    3.6530   -0.4710    0.5339 N   0  0  0  0  0  3  0  0  0  0  0  0
    3.9920   -0.7589   -0.7445 O   0  0  0  0  0  0  0  0  0  0  0  0
    3.4826    0.9259    0.7878 C   0  0  0  0  0  3  0  0  0  0  0  0
    4.1957    1.7016   -0.2997 C   0  0  0  0  0  3  0  0  0  0  0  0
    5.4447    0.9943   -0.7795 C   0  0  0  0  0  0  0  0  0  0  0  0
    6.3921    0.8246    0.3706 C   0  0  0  0  0  0  0  0  0  0  0  0
    6.7497    2.1770    0.9114 C   0  0  0  0  0  0  0  0  0  0  0  0
    7.9726    2.0245    2.4019 Br  0  0  0  0  0  0  0  0  0  0  0  0
  2  1  1  6
  2  3  1  0
  3  4  1  0
  4  5  1  1
  4  6  1  0
  6  7  1  0
  8  7  1  1
  8  9  1  0
  9 10  1  0
 10 11  1  0
 11 12  1  1
 12 13  1  0
 13 14  1  0
 14 15  1  0
 15 16  1  1
 15 17  1  0
 15 18  1  0
 18 19  1  0
 19 20  1  6
 19 21  1  0
 21 22  1  0
 21 23  1  0
 23 24  1  0
 24 25  1  0
 25 26  1  0
 26 27  1  0
 27 28  1  0
  8  2  1  0
 11  3  1  0
M  CHG  1  21   1
M  RAD  7   7   2  10   2  13   2  16   2  21   2  23   2  24   2
M  END
$$$$
