
     RDKit          3D

 31 34  0  0  0  0  0  0  0  0999 V2000
   -2.3526   -1.2148    1.5248 C   0  0  0  0  0  0  0  0  0  0  0  0
   -2.6134   -1.0749    0.1035 O   0  0  0  0  0  0  0  0  0  0  0  0
   -1.5223   -1.2410   -0.7312 C   0  0  0  0  0  0  0  0  0  0  0  0
   -1.4003   -2.5619   -1.1234 C   0  0  0  0  0  0  0  0  0  0  0  0
   -0.1758   -3.3675   -0.6455 C   0  0  0  0  0  0  0  0  0  0  0  0
    0.7128   -2.7668    0.1948 C   0  0  0  0  0  0  0  0  0  0  0  0
    1.8738   -1.9841    0.0471 C   0  0  2  0  0  0  0  0  0  0  0  0
    2.5141   -1.3509    1.2333 C   0  0  0  0  0  0  0  0  0  0  0  0
    2.5189   -0.0513    0.5028 C   0  0  0  0  0  0  0  0  0  0  0  0
    3.7946    0.6066    0.2727 C   0  0  0  0  0  0  0  0  0  0  0  0
    4.9264    0.3100    0.8864 C   0  0  0  0  0  0  0  0  0  0  0  0
    6.1269    0.9951    0.6086 N   0  0  0  0  0  0  0  0  0  0  0  0
    7.2530    0.6317    1.0758 C   0  0  0  0  0  0  0  0  0  0  0  0
    1.8844   -0.7368   -0.6956 C   0  0  0  0  0  0  0  0  0  0  0  0
    0.6726   -0.0370   -1.0535 C   0  0  0  0  0  0  0  0  0  0  0  0
   -0.6859   -0.1000   -1.0700 C   0  0  0  0  0  0  0  0  0  0  0  0
   -1.0991    1.1686   -1.4780 N   0  0  0  0  0  0  0  0  0  0  0  0
   -0.1907    2.0927   -2.0314 N   0  0  0  0  0  0  0  0  0  0  0  0
   -0.7076    2.6841   -3.2455 C   0  0  0  0  0  0  0  0  0  0  0  0
   -1.8851    3.3656   -3.0589 O   0  0  0  0  0  0  0  0  0  0  0  0
    0.3650    3.4754   -3.9218 C   0  0  0  0  0  0  0  0  0  0  0  0
   -2.4501    1.6927   -1.3959 C   0  0  0  0  0  0  0  0  0  0  0  0
   -3.0654    1.6420   -0.0589 C   0  0  0  0  0  0  0  0  0  0  0  0
   -2.0505    1.9690    0.9627 C   0  0  0  0  0  0  0  0  0  0  0  0
   -0.8704    2.7791    0.5984 C   0  0  0  0  0  0  0  0  0  0  0  0
   -2.1939    1.5420    2.1960 C   0  0  0  0  0  0  0  0  0  0  0  0
   -3.3438    0.7413    2.5952 C   0  0  0  0  0  0  0  0  0  0  0  0
   -3.3884   -0.5211    2.2728 C   0  0  0  0  0  0  0  0  0  0  0  0
    0.4077   -2.8697    1.6326 C   0  0  0  0  0  0  0  0  0  0  0  0
   -0.9717   -3.2328    1.9201 C   0  0  0  0  0  0  0  0  0  0  0  0
   -2.0834   -2.5852    1.8819 C   0  0  0  0  0  0  0  0  0  0  0  0
  1  2  1  0
  2  3  1  0
  3  4  2  3
  4  5  1  0
  5  6  2  3
  6  7  1  0
  7  8  1  1
  8  9  1  0
  9 10  1  0
 10 11  2  3
 11 12  1  0
 12 13  2  0
  7 14  1  0
 14 15  1  0
 15 16  2  3
 16 17  1  0
 17 18  1  0
 18 19  1  0
 19 20  1  0
 19 21  1  0
 17 22  1  0
 22 23  1  0
 23 24  1  0
 24 25  1  0
 24 26  2  3
 26 27  1  0
 27 28  2  3
  6 29  1  0
 29 30  1  0
 30 31  2  3
 28  1  1  0
 31  1  1  0
 16  3  1  0
 14  9  1  0
M  END
$$$$
