
     RDKit          3D

 15 14  0  0  0  0  0  0  0  0999 V2000
    3.2551    0.6647   -0.8320 C   0  0  0  0  0  0  0  0  0  0  0  0
    4.6121    0.2575   -0.3169 C   0  0  0  0  0  0  0  0  0  0  0  0
    4.5102   -0.8154    0.7494 C   0  0  0  0  0  0  0  0  0  0  0  0
    3.7048   -0.3046    1.9175 C   0  0  0  0  0  0  0  0  0  0  0  0
    2.3337    0.0531    1.4324 C   0  0  0  0  0  0  0  0  0  0  0  0
    1.6620   -1.0830    0.8662 N   0  0  0  0  0  0  0  0  0  0  0  0
    0.3649   -0.6972    0.4180 C   0  0  0  0  0  3  0  0  0  0  0  0
    0.1852    0.7918    0.6071 C   0  0  0  0  0  0  0  0  0  0  0  0
   -1.1978    1.1744    0.1335 C   0  0  0  0  0  0  0  0  0  0  0  0
   -1.3008    0.8213   -1.2643 N   0  0  0  0  0  0  0  0  0  0  0  0
   -2.5878    1.1269   -1.8264 C   0  0  0  0  0  0  0  0  0  0  0  0
   -3.7034    0.2885   -1.2997 C   0  0  0  0  0  0  0  0  0  0  0  0
   -3.5281   -1.1205   -1.5407 N   0  0  0  0  0  0  0  0  0  0  0  0
   -4.0967    0.5956    0.0838 C   0  0  0  0  0  0  0  0  0  0  0  0
   -4.2136   -0.3512    0.8719 O   0  0  0  0  0  0  0  0  0  0  0  0
  1  2  1  0
  2  3  1  0
  3  4  1  0
  4  5  1  0
  5  6  1  0
  6  7  1  0
  7  8  1  0
  8  9  1  0
  9 10  1  0
 10 11  1  0
 11 12  1  0
 12 13  1  0
 12 14  1  0
 14 15  2  0
M  RAD  1   7   2
M  END
$$$$
