
     RDKit          3D

 26 26  0  0  0  0  0  0  0  0999 V2000
   -4.1175   -0.8407    2.7599 C   0  0  0  0  0  0  0  0  0  0  0  0
   -4.2909    0.0738    1.5208 C   0  0  1  0  0  0  0  0  0  0  0  0
   -3.2329    1.0764    1.5210 C   0  0  0  0  0  0  0  0  0  0  0  0
   -3.2300    1.9200    0.2739 C   0  0  2  0  0  0  0  0  0  0  0  0
   -4.2551    2.8723    0.2750 O   0  0  0  0  0  0  0  0  0  0  0  0
   -3.3561    1.0544   -0.9750 C   0  0  2  0  0  0  0  0  0  0  0  0
   -3.5348    1.9330   -2.0578 O   0  0  0  0  0  0  0  0  0  0  0  0
   -4.5934    0.2265   -0.8327 C   0  0  1  0  0  0  0  0  0  0  0  0
   -5.0287   -0.3393   -1.9917 O   0  0  0  0  0  0  0  0  0  0  0  0
   -4.3061   -0.8865    0.3035 C   0  0  1  0  0  0  0  0  0  0  0  0
   -2.8744   -1.1471    0.0585 N   0  0  0  0  0  0  0  0  0  0  0  0
   -2.1288   -1.3901    1.3494 C   0  0  0  0  0  3  0  0  0  0  0  0
   -0.8801   -0.3870    1.1008 C   0  0  0  0  0  0  0  0  0  0  0  0
   -0.5429   -0.6616   -0.3813 C   0  0  1  0  0  0  0  0  0  0  0  0
    0.3064    0.4623   -0.7327 O   0  0  0  0  0  0  0  0  0  0  0  0
    0.5486   -1.7609   -0.3503 C   0  0  0  0  0  3  0  0  0  0  0  0
    1.8730   -1.3890   -0.6844 O   0  0  0  0  0  0  0  0  0  0  0  0
    2.5923   -1.4010    0.5544 C   0  0  1  0  0  0  0  0  0  0  0  0
    2.8311   -2.7452    0.8653 O   0  0  0  0  0  0  0  0  0  0  0  0
    4.0538   -1.0578   -0.0664 C   0  0  2  0  0  0  0  0  0  0  0  0
    5.0293   -1.9352    0.4827 O   0  0  0  0  0  0  0  0  0  0  0  0
    4.3129    0.4087    0.5062 C   0  0  0  0  0  3  0  0  0  0  0  0
    4.9434    1.0907   -0.7725 C   0  0  0  0  0  0  0  0  0  0  0  0
    5.6776    2.1300   -0.0898 O   0  0  0  0  0  0  0  0  0  0  0  0
    6.9272    1.8270   -0.6767 O   0  0  0  0  0  0  0  0  0  0  0  0
    7.2761    0.8663    0.3271 O   0  0  0  0  0  0  0  0  0  0  0  0
  2  1  1  1
  2  3  1  0
  3  4  1  0
  4  5  1  1
  4  6  1  0
  6  7  1  6
  6  8  1  0
  8  9  1  6
  8 10  1  0
 10 11  1  6
 11 12  1  0
 12 13  1  0
 13 14  1  0
 14 15  1  1
 14 16  1  0
 16 17  1  0
 17 18  1  0
 18 19  1  6
 18 20  1  0
 20 21  1  1
 20 22  1  0
 22 23  1  0
 23 24  1  0
 24 25  1  0
 25 26  1  0
 10  2  1  0
M  RAD  3  12   2  16   2  22   2
M  END
$$$$
