
     RDKit          3D

 32 33  0  0  0  0  0  0  0  0999 V2000
   -3.0683   -0.3850   -0.5701 C   0  0  0  0  0  0  0  0  0  0  0  0
   -3.8151   -0.1800    0.6975 C   0  0  1  0  0  0  0  0  0  0  0  0
   -3.9243    1.2914    0.9650 C   0  0  0  0  0  0  0  0  0  0  0  0
   -4.8793    2.0078    0.0555 C   0  0  2  0  0  0  0  0  0  0  0  0
   -5.2009    3.2504    0.6264 O   0  0  0  0  0  0  0  0  0  0  0  0
   -6.1937    1.2741   -0.1143 C   0  0  2  0  0  0  0  0  0  0  0  0
   -6.8699    1.2807    1.1125 O   0  0  0  0  0  0  0  0  0  0  0  0
   -5.9339   -0.1564   -0.5008 C   0  0  1  0  0  0  0  0  0  0  0  0
   -5.0880   -0.1867   -1.6076 O   0  0  0  0  0  0  0  0  0  0  0  0
   -5.1870   -0.7974    0.6613 C   0  0  1  0  0  0  0  0  0  0  0  0
   -5.1720   -2.2139    0.4188 N   0  0  0  0  0  0  0  0  0  0  0  0
   -3.9074   -2.8439    0.6976 C   0  0  0  0  0  3  0  0  0  0  0  0
   -3.0714   -2.8864   -0.5713 C   0  0  0  0  0  0  0  0  0  0  0  0
   -2.1914   -1.6240   -0.5527 C   0  0  0  0  0  0  0  0  0  0  0  0
   -1.3823   -1.6282   -1.6579 O   0  0  0  0  0  0  0  0  0  0  0  0
   -1.5089   -1.6613    0.6276 O   0  0  0  0  0  0  0  0  0  0  0  0
   -0.2165   -2.0231    0.5135 O   0  0  0  0  0  0  0  0  0  0  0  0
    0.4488   -0.8205    0.1710 C   0  0  1  0  0  0  0  0  0  0  0  0
    1.3270   -0.5537    1.2247 O   0  0  0  0  0  0  0  0  0  0  0  0
    1.2270   -1.0044   -1.1088 C   0  0  2  0  0  0  0  0  0  0  0  0
    2.0972   -2.0800   -1.1092 O   0  0  0  0  0  0  0  0  0  0  0  0
    1.9649    0.2943   -1.4374 C   0  0  0  0  0  3  0  0  0  0  0  0
    2.9356    0.4765   -0.4630 O   0  0  0  0  0  0  0  0  0  0  0  0
    3.4823   -0.6842   -0.1895 O   0  0  0  0  0  0  0  0  0  0  0  0
    4.5169   -0.5662    0.7431 C   0  0  0  0  0  3  0  0  0  0  0  0
    6.0242   -0.2143   -0.2077 S   0  0  0  0  0  0  0  0  0  0  0  0
    5.8884    1.4785   -0.8628 C   0  0  0  0  0  3  0  0  0  0  0  0
    5.9602    2.3915    0.1878 O   0  0  0  0  0  0  0  0  0  0  0  0
    6.7152    1.8122    1.2054 C   0  0  0  0  0  3  0  0  0  0  0  0
    8.0484    2.2222    1.1303 O   0  0  0  0  0  0  0  0  0  0  0  0
    8.2466    2.8541   -0.0858 C   0  0  0  0  0  3  0  0  0  0  0  0
    8.7279    1.8758   -1.1384 C   0  0  0  0  0  2  0  0  0  0  0  0
  2  1  1  6
  2  3  1  0
  3  4  1  0
  4  5  1  1
  4  6  1  0
  6  7  1  1
  6  8  1  0
  8  9  1  6
  8 10  1  0
 10 11  1  6
 11 12  1  0
 12 13  1  0
 13 14  1  0
 14 15  1  0
 14 16  1  0
 16 17  1  0
 17 18  1  0
 18 19  1  1
 18 20  1  0
 20 21  1  1
 20 22  1  0
 22 23  1  0
 23 24  1  0
 24 25  1  0
 25 26  1  0
 26 27  1  0
 27 28  1  0
 28 29  1  0
 29 30  1  0
 30 31  1  0
 31 32  1  0
 14  1  1  0
 10  2  1  0
M  RAD  7  12   2  22   2  25   2  27   2  29   2  31   2  32   3
M  END
$$$$
