
     RDKit          3D

 35 35  0  0  0  0  0  0  0  0999 V2000
    6.4111   -1.0606    1.7400 C   0  0  0  0  0  0  0  0  0  0  0  0
    5.0032   -1.5397    2.1126 C   0  0  0  0  0  0  0  0  0  0  0  0
    4.7914   -1.3168    3.6040 C   0  0  0  0  0  0  0  0  0  0  0  0
    4.0365   -0.6476    1.3344 C   0  0  0  0  0  0  0  0  0  0  0  0
    4.2785   -0.7895   -0.1351 C   0  0  0  0  0  0  0  0  0  0  0  0
    4.0932   -2.1871   -0.6505 C   0  0  0  0  0  0  0  0  0  0  0  0
    2.6317   -2.5183   -0.7272 C   0  0  1  0  0  0  0  0  0  0  0  0
    1.8682   -1.4605   -1.4908 C   0  0  0  0  0  0  0  0  0  0  0  0
    2.4569   -3.8333   -1.4936 C   0  0  0  0  0  3  0  0  0  0  0  0
    0.9433   -4.0727   -1.5587 C   0  0  0  0  0  3  0  0  0  0  0  0
    0.4816   -4.1406   -0.1029 C   0  0  0  0  0  0  0  0  0  0  0  0
   -0.8186   -4.8831   -0.0845 C   0  0  2  0  0  0  0  0  0  0  0  0
   -1.5874   -4.6415   -1.3623 C   0  0  0  0  0  0  0  0  0  0  0  0
   -1.6440   -4.3577    1.0708 C   0  0  0  0  0  3  0  0  0  0  0  0
   -3.1015   -4.4917    0.6832 C   0  0  0  0  0  0  0  0  0  0  0  0
   -3.5097   -3.1470    0.0787 C   0  0  0  0  0  0  0  0  0  0  0  0
   -4.4747   -3.3606   -1.0539 C   0  0  0  0  0  0  0  0  0  0  0  0
   -4.0801   -2.3244    1.1969 C   0  0  0  0  0  0  0  0  0  0  0  0
   -5.2659   -1.4891    0.7686 C   0  0  0  0  0  0  0  0  0  0  0  0
   -4.7968   -0.0329    0.7795 C   0  0  0  0  0  0  0  0  0  0  0  0
   -5.3091    0.5785   -0.5189 C   0  0  0  0  0  0  0  0  0  0  0  0
   -5.6397    1.9699   -0.3131 N   0  0  0  0  0  0  0  0  0  0  0  0
   -4.3840    2.7017   -0.2439 C   0  0  0  0  0  0  0  0  0  0  0  0
   -4.5316    3.8459    0.7098 C   0  0  0  0  0  3  0  0  0  0  0  0
   -3.1368    4.3679    1.0519 C   0  0  0  0  0  0  0  0  0  0  0  0
   -2.7019    5.2021   -0.1481 C   0  0  0  0  0  0  0  0  0  0  0  0
   -1.3214    5.7564    0.1282 C   0  0  0  0  0  0  0  0  0  0  0  0
   -0.3057    4.7555   -0.3570 C   0  0  0  0  0  0  0  0  0  0  0  0
    0.6416    5.4859   -1.2881 C   0  0  0  0  0  0  0  0  0  0  0  0
    2.0035    5.5250   -0.6303 C   0  0  0  0  0  0  0  0  0  0  0  0
    2.3555    4.1018   -0.2475 C   0  0  0  0  0  0  0  0  0  0  0  0
    3.6077    3.7441   -0.9854 C   0  0  0  0  0  0  0  0  0  0  0  0
    4.1207    2.5381   -0.9100 C   0  0  0  0  0  0  0  0  0  0  0  0
    3.4390    1.5049   -0.0704 C   0  0  0  0  0  0  0  0  0  0  0  0
    3.4452    0.2168   -0.8863 C   0  0  0  0  0  3  0  0  0  0  0  0
  1  2  1  0
  2  3  1  0
  2  4  1  0
  4  5  1  0
  5  6  1  0
  6  7  1  0
  7  8  1  6
  7  9  1  0
  9 10  1  0
 10 11  1  0
 11 12  1  0
 12 13  1  6
 12 14  1  0
 14 15  1  0
 15 16  1  0
 16 17  1  0
 16 18  1  0
 18 19  1  0
 19 20  1  0
 20 21  1  0
 21 22  1  0
 22 23  1  0
 23 24  1  0
 24 25  1  0
 25 26  1  0
 26 27  1  0
 27 28  1  0
 28 29  1  0
 29 30  1  0
 30 31  1  0
 31 32  1  0
 32 33  2  3
 33 34  1  0
 34 35  1  0
 35  5  1  0
M  RAD  5   9   2  10   2  14   2  24   2  35   2
M  END
$$$$
