
     RDKit          3D

 28 28  0  0  0  0  0  0  0  0999 V2000
   -2.3369    2.3041   -0.3309 C   0  0  0  0  0  0  0  0  0  0  0  0
   -3.7972    2.3110   -0.0802 C   0  0  0  0  0  0  0  0  0  0  0  0
   -4.4561    3.6118   -0.4021 C   0  0  0  0  0  0  0  0  0  0  0  0
   -4.4711    1.1170   -0.6825 C   0  0  0  0  0  0  0  0  0  0  0  0
   -4.1540   -0.0979    0.1695 C   0  0  0  0  0  0  0  0  0  0  0  0
   -4.0353   -1.3451   -0.6709 C   0  0  0  0  0  0  0  0  0  0  0  0
   -4.1377   -2.5411    0.2408 C   0  0  1  0  0  0  0  0  0  0  0  0
   -4.7173   -3.6836   -0.5361 C   0  0  0  0  0  0  0  0  0  0  0  0
   -2.7350   -2.8775    0.7472 C   0  0  0  0  0  3  0  0  0  0  0  0
   -1.8260   -2.9756   -0.4442 C   0  0  0  0  0  0  0  0  0  0  0  0
   -0.4803   -3.5217   -0.0789 C   0  0  0  0  0  0  0  0  0  0  0  0
    0.5593   -2.8096   -0.9467 C   0  0  0  0  0  3  0  0  0  0  0  0
    1.7025   -2.4199   -0.0607 C   0  0  2  0  0  0  0  0  0  0  0  0
    1.2724   -1.6919    1.1765 C   0  0  0  0  0  0  0  0  0  0  0  0
    2.7882   -1.7005   -0.7942 C   0  0  0  0  0  0  0  0  0  0  0  0
    2.9821   -0.3081   -0.2262 C   0  0  0  0  0  0  0  0  0  0  0  0
    3.2319   -0.3415    1.2093 C   0  0  0  0  0  0  0  0  0  0  0  0
    4.2038    0.0921    1.9206 C   0  0  0  0  0  0  0  0  0  0  0  0
    5.4369    0.7801    1.6247 C   0  0  0  0  0  0  0  0  0  0  0  0
    5.6219    0.9765    0.1534 C   0  0  0  0  0  0  0  0  0  0  0  0
    5.6755   -0.2409   -0.4819 O   0  0  0  0  0  0  0  0  0  0  0  0
    1.6965    0.4520   -0.4889 C   0  0  0  0  0  0  0  0  0  0  0  0
    1.7415    1.8582    0.0401 C   0  0  0  0  0  0  0  0  0  0  0  0
    2.1407    2.8203   -1.0406 C   0  0  0  0  0  2  0  0  0  0  0  0
    0.4329    2.2893    0.6685 C   0  0  2  0  0  0  0  0  0  0  0  0
   -0.5515    1.1478    0.7519 C   0  0  0  0  0  0  0  0  0  0  0  0
   -0.1524    3.4278   -0.1707 C   0  0  0  0  0  0  0  0  0  0  0  0
   -1.6355    3.3670    0.0519 C   0  0  0  0  0  0  0  0  0  0  0  0
  1  2  1  0
  2  3  1  0
  2  4  1  0
  4  5  1  0
  5  6  1  0
  6  7  1  0
  7  8  1  6
  7  9  1  0
  9 10  1  0
 10 11  1  0
 11 12  1  0
 12 13  1  0
 13 14  1  1
 13 15  1  0
 15 16  1  0
 16 17  1  0
 17 18  2  3
 18 19  1  0
 19 20  1  0
 20 21  1  0
 16 22  1  0
 22 23  1  0
 23 24  1  0
 23 25  1  0
 25 26  1  6
 25 27  1  0
 27 28  1  0
  1 28  2  3
M  RAD  3   9   2  12   2  24   3
M  END
$$$$
