
     RDKit          3D

 32 32  0  0  0  0  0  0  0  0999 V2000
    8.9820    0.8464    0.8195 C   0  0  0  0  0  0  0  0  0  0  0  0
    8.0981    0.4679   -0.3575 C   0  0  0  0  0  0  0  0  0  0  0  0
    8.9019   -0.1138   -1.4936 C   0  0  0  0  0  0  0  0  0  0  0  0
    7.0848   -0.5243    0.1407 C   0  0  0  0  0  0  0  0  0  0  0  0
    6.1702   -0.9419   -0.9915 C   0  0  0  0  0  0  0  0  0  0  0  0
    5.4359    0.2719   -1.5526 C   0  0  0  0  0  0  0  0  0  0  0  0
    4.6193    0.8767   -0.4113 C   0  0  1  0  0  0  0  0  0  0  0  0
    3.8943    2.0667   -0.9451 C   0  0  0  0  0  0  0  0  0  0  0  0
    3.6857   -0.2559    0.0410 C   0  0  0  0  0  3  0  0  0  0  0  0
    2.7862   -0.5800   -1.1280 C   0  0  0  0  0  0  0  0  0  0  0  0
    1.8407    0.5848   -1.3217 C   0  0  0  0  0  0  0  0  0  0  0  0
    0.9678    0.7428   -0.1297 C   0  0  2  0  0  0  0  0  0  0  0  0
    1.6194    0.9897    1.1744 C   0  0  0  0  0  0  0  0  0  0  0  0
    0.1261   -0.5302    0.0002 C   0  0  0  0  0  0  0  0  0  0  0  0
   -1.3169   -0.1008   -0.2575 C   0  0  0  0  0  0  0  0  0  0  0  0
   -1.3930    0.1781   -1.7643 C   0  0  0  0  0  0  0  0  0  0  0  0
   -2.4494   -0.7390   -2.3168 C   0  0  2  0  0  0  0  0  0  0  0  0
   -2.4543   -0.7961   -3.8215 C   0  0  0  0  0  0  0  0  0  0  0  0
   -3.7769   -0.3210   -1.7385 C   0  0  0  0  0  0  0  0  0  0  0  0
   -3.6646    1.0550   -1.0895 C   0  0  0  0  0  0  0  0  0  0  0  0
   -5.0364    1.5568   -0.7400 C   0  0  0  0  0  0  0  0  0  0  0  0
   -6.0950    0.6827   -1.3503 C   0  0  0  0  0  0  0  0  0  0  0  0
   -7.4278    0.8423   -0.6678 C   0  0  0  0  0  0  0  0  0  0  0  0
   -7.3597    0.7112    0.8194 C   0  0  0  0  0  0  0  0  0  0  0  0
   -5.9561    0.4336    1.3038 C   0  0  0  0  0  0  0  0  0  0  0  0
   -5.7427   -1.0183    1.6419 C   0  0  0  0  0  0  0  0  0  0  0  0
   -4.3355   -1.2067    2.1069 C   0  0  0  0  0  0  0  0  0  0  0  0
   -3.7429    0.0563    2.7039 C   0  0  0  0  0  3  0  0  0  0  0  0
   -2.4183   -0.2765    3.2014 N   0  0  0  0  0  0  0  0  0  0  0  0
   -1.5386    0.8721    3.0970 C   0  0  0  0  0  0  0  0  0  0  0  0
   -0.1098    0.4657    2.8895 C   0  0  0  0  0  0  0  0  0  0  0  0
    0.6055    1.5695    2.1376 C   0  0  0  0  0  3  0  0  0  0  0  0
  1  2  1  0
  2  3  1  0
  2  4  1  0
  4  5  1  0
  5  6  1  0
  6  7  1  0
  7  8  1  6
  7  9  1  0
  9 10  1  0
 10 11  1  0
 12 11  1  6
 12 13  1  0
 12 14  1  0
 14 15  1  0
 15 16  1  0
 16 17  1  0
 17 18  1  6
 17 19  1  0
 19 20  1  0
 20 21  1  0
 21 22  1  0
 22 23  1  0
 23 24  1  0
 24 25  1  0
 25 26  1  0
 26 27  1  0
 27 28  1  0
 28 29  1  0
 29 30  1  0
 30 31  1  0
 31 32  1  0
 32 13  1  0
M  RAD  3   9   2  28   2  32   2
M  END
$$$$
