
     RDKit          3D

 15 14  0  0  0  0  0  0  0  0999 V2000
    4.3232    1.8516    0.1227 N   0  0  0  0  0  0  0  0  0  0  0  0
    3.1303    2.0792    0.9259 C   0  0  0  0  0  0  0  0  0  0  0  0
    2.4125    0.8640    1.0090 O   0  0  0  0  0  0  0  0  0  0  0  0
    1.2259    0.7921    1.7025 C   0  0  0  0  0  0  0  0  0  0  0  0
    0.8349    1.8874    2.2532 O   0  0  0  0  0  0  0  0  0  0  0  0
    0.4394   -0.4445    1.8188 C   0  0  0  0  0  0  0  0  0  0  0  0
    1.2224   -1.6198    1.3203 C   0  0  0  0  0  0  0  0  0  0  0  0
    1.6324   -1.4538   -0.0854 C   0  0  0  0  0  0  0  0  0  0  0  0
    0.3455   -1.2926   -0.9737 C   0  0  0  0  0  0  0  0  0  0  0  0
   -0.5186   -1.1766   -1.5506 C   0  0  0  0  0  0  0  0  0  0  0  0
   -1.7634   -1.0158   -2.3529 C   0  0  0  0  0  0  0  0  0  0  0  0
   -2.6221    0.0115   -1.7071 C   0  0  0  0  0  0  0  0  0  0  0  0
   -3.8604    0.2541   -2.3857 N   0  0  0  0  0  0  0  0  0  0  0  0
   -2.8230   -0.1498   -0.2619 C   0  0  0  0  0  0  0  0  0  0  0  0
   -3.9790   -0.0656    0.1648 O   0  0  0  0  0  0  0  0  0  0  0  0
  1  2  1  0
  2  3  1  0
  3  4  1  0
  4  5  2  0
  4  6  1  0
  6  7  1  0
  7  8  1  0
  8  9  1  0
  9 10  3  0
 10 11  1  0
 11 12  1  0
 12 13  1  0
 12 14  1  0
 14 15  2  0
M  END
$$$$
