
     RDKit          3D

 15 15  0  0  0  0  0  0  0  0999 V2000
    3.0820   -2.2594    0.2686 N   0  0  0  0  0  0  0  0  0  0  0  0
    1.9619   -1.4932   -0.3011 C   0  0  1  0  0  0  0  0  0  0  0  0
    0.8230   -1.6470    0.6465 C   0  0  0  0  0  0  0  0  0  0  0  0
   -0.4108   -0.9418    0.2457 C   0  0  0  0  0  0  0  0  0  0  0  0
   -1.3870   -1.5425   -0.5432 C   0  0  0  0  0  0  0  0  0  0  0  0
   -2.5323   -0.8585   -0.9018 C   0  0  0  0  0  0  0  0  0  0  0  0
   -2.7501    0.4481   -0.4893 C   0  0  0  0  0  0  0  0  0  0  0  0
   -3.8903    1.1624   -0.8326 O   0  0  0  0  0  0  0  0  0  0  0  0
   -1.7875    1.0484    0.2920 C   0  0  0  0  0  0  0  0  0  0  0  0
   -1.9951    2.3721    0.7170 O   0  0  0  0  0  0  0  0  0  0  0  0
   -0.6393    0.3571    0.6490 C   0  0  0  0  0  0  0  0  0  0  0  0
    2.4124   -0.0831   -0.3950 C   0  0  0  0  0  0  0  0  0  0  0  0
    3.5540    0.2894   -0.0230 O   0  0  0  0  0  0  0  0  0  0  0  0
    1.5721    0.8979   -0.9081 O   0  0  0  0  0  0  0  0  0  0  0  0
    1.9871    2.2502   -1.0049 C   0  0  0  0  0  0  0  0  0  0  0  0
  2  1  1  1
  2  3  1  0
  3  4  1  0
  4  5  2  0
  5  6  1  0
  6  7  2  0
  7  8  1  0
  7  9  1  0
  9 10  1  0
  9 11  2  0
  2 12  1  0
 12 13  2  0
 12 14  1  0
 14 15  1  0
 11  4  1  0
M  END
$$$$
