
     RDKit          3D

  9  8  0  0  0  0  0  0  0  0999 V2000
   -2.4910   -0.8824   -0.9992 O   0  0  0  0  0  1  0  0  0  0  0  0
   -1.6219    0.1831   -1.0036 C   0  0  0  0  0  0  0  0  0  0  0  0
   -0.9357    0.4086    0.2240 N   0  0  0  0  0  0  0  0  0  0  0  0
   -0.1195   -0.5717    0.7546 N   0  0  0  0  0  0  0  0  0  0  0  0
    1.1503   -0.5255    0.5514 C   0  0  0  0  0  0  0  0  0  0  0  0
    1.9447   -1.5571    1.1185 N   0  0  0  0  0  0  0  0  0  0  0  0
    1.7552    0.4869   -0.1937 N   0  0  0  0  0  3  0  0  0  0  0  0
    1.3846    0.8944   -1.3339 N   0  0  0  0  0  2  0  0  0  0  0  0
   -1.0666    1.5637    0.8819 O   0  0  0  0  0  0  0  0  0  0  0  0
  1  2  1  0
  2  3  1  0
  3  4  1  0
  4  5  2  3
  5  6  1  0
  5  7  1  0
  7  8  2  0
  3  9  1  0
M  CHG  3   1  -1   7   1   8  -1
M  RAD  1   7   2
M  END
$$$$
