
     RDKit          3D

 21 21  0  0  0  0  0  0  0  0999 V2000
   -5.0118    2.7148    0.5599 C   0  0  0  0  0  0  0  0  0  0  0  0
   -4.6957    1.7939    1.5811 O   0  0  0  0  0  0  0  0  0  0  0  0
   -3.5084    1.0722    1.5534 C   0  0  0  0  0  0  0  0  0  0  0  0
   -3.4956   -0.2101    1.1568 C   0  0  0  0  0  0  0  0  0  0  0  0
   -2.2436   -1.0102    1.1169 C   0  0  0  0  0  0  0  0  0  0  0  0
   -1.1451   -0.1219    1.6798 C   0  0  0  0  0  0  0  0  0  0  0  0
   -1.0277    1.0990    0.8673 C   0  0  0  0  0  0  0  0  0  0  0  0
    0.0775    1.4686    0.3082 C   0  0  0  0  0  0  0  0  0  0  0  0
    1.3155    0.7116    0.4253 C   0  0  0  0  0  0  0  0  0  0  0  0
    2.3930    1.1763   -0.1798 C   0  0  0  0  0  0  0  0  0  0  0  0
    3.7099    0.5134   -0.1462 C   0  0  0  0  0  0  0  0  0  0  0  0
    3.7561   -0.7557    0.6145 C   0  0  0  0  0  0  0  0  0  0  0  0
    5.0833   -1.4221    0.5489 C   0  0  0  0  0  0  0  0  0  0  0  0
    5.3643   -1.9881   -0.5192 O   0  0  0  0  0  0  0  0  0  0  0  0
    4.7128    1.0603   -0.7806 C   0  0  0  0  0  0  0  0  0  0  0  0
    6.0895    0.6264   -0.9116 C   0  0  0  0  0  0  0  0  0  0  0  0
   -1.9691   -1.4863   -0.2875 C   0  0  0  0  0  0  0  0  0  0  0  0
   -1.7794   -0.4034   -1.3631 C   0  0  0  0  0  0  0  0  0  0  0  0
   -3.0277    0.4321   -1.4522 C   0  0  0  0  0  0  0  0  0  0  0  0
   -1.6437   -2.8056   -0.5801 C   0  0  0  0  0  0  0  0  0  0  0  0
   -2.9540   -2.4650   -0.7305 N   0  0  0  0  0  0  0  0  0  0  0  0
  1  2  1  0
  2  3  1  0
  3  4  2  3
  4  5  1  0
  5  6  1  0
  6  7  1  0
  7  8  2  3
  8  9  1  0
  9 10  2  3
 10 11  1  0
 11 12  1  0
 12 13  1  0
 13 14  2  0
 11 15  2  3
 15 16  1  0
  5 17  1  0
 17 18  1  0
 18 19  1  0
 17 20  1  0
 20 21  2  0
 21 17  1  0
M  END
$$$$
