
     RDKit          3D

 28 29  0  0  0  0  0  0  0  0999 V2000
    2.6448    0.4453    0.9484 C   0  0  0  0  0  0  0  0  0  0  0  0
    3.4537    1.6562    1.2685 C   0  0  0  0  0  0  0  0  0  0  0  0
    4.8884    1.3659    1.5905 C   0  0  0  0  0  0  0  0  0  0  0  0
    3.2846    2.7784    0.2691 C   0  0  0  0  0  0  0  0  0  0  0  0
    2.2629    3.7633    0.8022 C   0  0  0  0  0  0  0  0  0  0  0  0
    0.9164    3.1180    1.0141 C   0  0  0  0  0  0  0  0  0  0  0  0
   -0.1748    4.0004    0.4245 C   0  0  1  0  0  0  0  0  0  0  0  0
   -0.1735    3.9233   -1.0917 C   0  0  0  0  0  0  0  0  0  0  0  0
   -1.4873    3.4948    0.9909 C   0  0  0  0  0  3  0  0  0  0  0  0
   -1.9947    2.3315    0.1885 C   0  0  0  0  0  0  0  0  0  0  0  0
   -3.2110    1.7595    0.8626 C   0  0  0  0  0  0  0  0  0  0  0  0
   -4.2587    1.4231   -0.1825 C   0  0  2  0  0  0  0  0  0  0  0  0
   -5.5372    2.2266    0.0577 C   0  0  0  0  0  0  0  0  0  0  0  0
   -4.5243   -0.0657   -0.0944 C   0  0  0  0  0  3  0  0  0  0  0  0
   -3.1675   -0.7493    0.1031 C   0  0  0  0  0  0  0  0  0  0  0  0
   -3.3409   -2.2230    0.3999 C   0  0  0  0  0  0  0  0  0  0  0  0
   -4.6755   -2.6873    0.0557 N   0  0  0  0  0  0  0  0  0  0  0  0
   -2.2820   -2.9852   -0.3834 C   0  0  0  0  0  0  0  0  0  0  0  0
   -0.9351   -2.6239    0.1858 C   0  0  0  0  0  0  0  0  0  0  0  0
   -0.0246   -3.8429    0.1322 C   0  0  0  0  0  0  0  0  0  0  0  0
   -0.4828   -4.8069    1.0211 O   0  0  0  0  0  0  0  0  0  0  0  0
    1.3688   -3.3838    0.5732 C   0  0  0  0  0  0  0  0  0  0  0  0
    1.6962   -2.1667   -0.2545 C   0  0  0  0  0  0  0  0  0  0  0  0
    1.3396   -2.4507   -1.7058 C   0  0  0  0  0  0  0  0  0  0  0  0
    3.1625   -1.7702   -0.1228 C   0  0  0  0  0  0  0  0  0  0  0  0
    4.0388   -1.9250   -1.6240 S   0  0  0  0  0  0  0  0  0  0  0  0
    3.9317   -0.2566   -1.2977 C   0  0  0  0  0  0  0  0  0  0  0  0
    3.2817   -0.3490   -0.2019 C   0  0  0  0  0  0  0  0  0  0  0  0
  1  2  1  0
  2  3  1  0
  2  4  1  0
  4  5  1  0
  5  6  1  0
  6  7  1  0
  7  8  1  6
  7  9  1  0
  9 10  1  0
 10 11  1  0
 11 12  1  0
 12 13  1  1
 12 14  1  0
 14 15  1  0
 15 16  1  0
 16 17  1  0
 16 18  1  0
 18 19  1  0
 19 20  1  0
 20 21  1  0
 20 22  1  0
 22 23  1  0
 23 24  1  0
 23 25  1  0
 25 26  1  0
 26 27  1  0
 27 28  2  0
 28  1  1  0
 28 25  1  0
M  RAD  2   9   2  14   2
M  END
$$$$
