
     RDKit          3D

 85 86  0  0  0  0  0  0  0  0999 V2000
    7.3537   -9.9997   -0.5244 C   0  0  0  0  0  0  0  0  0  0  0  0
    7.2573   -8.4942   -0.5786 C   0  0  0  0  0  0  0  0  0  0  0  0
    8.6259   -7.8672   -0.7490 C   0  0  0  0  0  0  0  0  0  0  0  0
    6.5403   -7.9480    0.6465 C   0  0  0  0  0  0  0  0  0  0  0  0
    6.4889   -6.4407    0.5130 C   0  0  0  0  0  0  0  0  0  0  0  0
    5.7150   -6.1454   -0.7776 C   0  0  0  0  0  0  0  0  0  0  0  0
    4.3318   -6.7352   -0.6405 C   0  0  1  0  0  0  0  0  0  0  0  0
    4.3647   -8.2220   -0.4269 C   0  0  0  0  0  0  0  0  0  0  0  0
    3.5794   -5.9824    0.4184 C   0  0  0  0  0  3  0  0  0  0  0  0
    3.4839   -4.5386   -0.0330 C   0  0  0  0  0  0  0  0  0  0  0  0
    2.7453   -3.7680    1.0143 C   0  0  0  0  0  0  0  0  0  0  0  0
    2.6133   -2.3062    0.6009 C   0  0  2  0  0  0  0  0  0  0  0  0
    1.8660   -1.6001    1.6954 C   0  0  0  0  0  0  0  0  0  0  0  0
    1.9425   -2.2869   -0.7244 C   0  0  1  0  0  0  0  0  0  0  0  0
    0.5806   -2.8976   -0.7729 C   0  0  0  0  0  0  0  0  0  0  0  0
    0.0682   -3.4076    0.5465 C   0  0  0  0  0  0  0  0  0  0  0  0
    0.1480   -4.9398    0.5922 C   0  0  0  0  0  0  0  0  0  0  0  0
   -1.3925   -2.9781    0.6287 C   0  0  0  0  0  0  0  0  0  0  0  0
   -1.9602   -3.2508    2.0044 C   0  0  0  0  0  0  0  0  0  0  0  0
   -3.2227   -2.7466    2.1733 O   0  0  0  0  0  0  0  0  0  0  0  0
   -3.6754   -1.9315    1.1690 C   0  0  0  0  0  0  0  0  0  0  0  0
   -3.7344   -2.5536   -0.1841 C   0  0  0  0  0  0  0  0  0  0  0  0
   -4.3945   -3.7875   -0.2091 O   0  0  0  0  0  0  0  0  0  0  0  0
   -5.2474   -4.1447    0.8162 C   0  0  0  0  0  0  0  0  0  0  0  0
   -6.3761   -3.4916    0.9780 C   0  0  0  0  0  0  0  0  0  0  0  0
   -6.7090   -2.3837    0.0533 C   0  0  0  0  0  0  0  0  0  0  0  0
   -8.2239   -2.2393    0.0469 C   0  0  0  0  0  0  0  0  0  0  0  0
   -8.7834   -2.6599    1.2415 O   0  0  0  0  0  0  0  0  0  0  0  0
   -9.0660   -1.5756    2.0164 C   0  0  0  0  0  3  0  0  0  0  0  0
   -8.7011   -0.3221    1.2997 C   0  0  0  0  0  0  0  0  0  0  0  0
   -8.5962   -0.7920   -0.1441 C   0  0  0  0  0  0  0  0  0  0  0  0
   -9.9595   -0.7292   -0.8138 C   0  0  0  0  0  0  0  0  0  0  0  0
  -11.0309   -0.6514    0.2644 C   0  0  0  0  0  3  0  0  0  0  0  0
  -11.2381    0.8179    0.5600 C   0  0  0  0  0  0  0  0  0  0  0  0
  -12.7153    1.0762    0.6897 C   0  0  0  0  0  0  0  0  0  0  0  0
  -13.0723    2.6808   -0.0726 S   0  0  0  0  0  0  0  0  0  0  0  0
  -12.6732    3.9529    1.1096 N   0  0  0  0  0  0  0  0  0  0  0  0
  -12.8141    5.2497    0.4440 C   0  0  0  0  0  2  0  0  0  0  0  0
  -12.0543    5.3257   -0.8426 C   0  0  0  0  0  0  0  0  0  0  0  0
  -10.8347    4.4352   -0.8449 C   0  0  0  0  0  0  0  0  0  0  0  0
  -10.3593    4.1331    0.5537 C   0  0  2  0  0  0  0  0  0  0  0  0
  -10.1319    5.6509    1.5246 S   0  0  0  0  0  0  0  0  0  0  0  0
   -9.0212    3.4294    0.4805 C   0  0  0  0  0  3  0  0  0  0  0  0
   -8.3655    3.3716    1.8429 C   0  0  0  0  0  0  0  0  0  0  0  0
   -8.1550    4.1901   -0.5042 C   0  0  2  0  0  0  0  0  0  0  0  0
   -7.7346    3.3265   -1.6775 C   0  0  0  0  0  0  0  0  0  0  0  0
   -6.9856    4.8439    0.1663 C   0  0  0  0  0  0  0  0  0  0  0  0
   -6.1195    3.8308    0.8625 C   0  0  0  0  0  0  0  0  0  0  0  0
   -6.0314    2.5342    0.0899 C   0  0  0  0  0  0  0  0  0  0  0  0
   -4.7692    2.5750   -0.7216 C   0  0  0  0  0  0  0  0  0  0  0  0
   -3.7176    3.3083    0.0621 C   0  0  2  0  0  0  0  0  0  0  0  0
   -4.0006    4.7925    0.1483 C   0  0  0  0  0  0  0  0  0  0  0  0
   -2.3955    3.1674   -0.6981 C   0  0  0  0  0  0  0  0  0  0  0  0
   -1.3168    3.6797    0.2554 C   0  0  0  0  0  3  0  0  0  0  0  0
   -1.6916    3.1207    1.6298 C   0  0  0  0  0  0  0  0  0  0  0  0
   -1.2925    1.6430    1.5795 C   0  0  0  0  0  0  0  0  0  0  0  0
    0.3656    1.5962    0.8445 S   0  0  0  0  0  0  0  0  0  0  0  0
    0.2583    1.4027   -0.9728 C   0  0  0  0  0  2  0  0  0  0  0  0
   -0.1149   -0.0404   -1.2293 C   0  0  0  0  0  0  0  0  0  0  0  0
   -1.5697   -0.2167   -1.5470 C   0  0  0  0  0  0  0  0  0  0  0  0
    0.7874   -0.6917   -2.2563 C   0  0  2  0  0  0  0  0  0  0  0  0
    0.2180   -1.8480   -2.7694 O   0  0  0  0  0  0  0  0  0  0  0  0
    2.0777   -1.0402   -1.5227 C   0  0  1  0  0  0  0  0  0  0  0  0
    2.4631    0.1046   -0.6387 C   0  0  0  0  0  0  0  0  0  0  0  0
    3.8152   -0.2534    0.0120 C   0  0  0  0  0  0  0  0  0  0  0  0
    4.1927    0.9073    0.8947 C   0  0  0  0  0  0  0  0  0  0  0  0
    4.7744   -0.4684   -1.1231 C   0  0  0  0  0  0  0  0  0  0  0  0
    4.8862    0.7953   -1.9279 C   0  0  0  0  0  0  0  0  0  0  0  0
    5.4986    1.8810   -1.1001 C   0  0  0  0  0  0  0  0  0  0  0  0
    6.9131    1.5388   -0.7541 C   0  0  0  0  0  0  0  0  0  0  0  0
    7.6496    1.4125   -2.1116 C   0  0  0  0  0  0  0  0  0  0  0  0
    7.0896    0.2604   -0.1130 N   0  0  0  0  0  0  0  0  0  0  0  0
    8.5003    0.1549    0.2637 C   0  0  0  0  0  3  0  0  0  0  0  0
    9.3532    0.9803   -0.5529 N   0  0  0  0  0  0  0  0  0  0  0  0
    9.9534    2.0729    0.2124 C   0  0  2  0  0  0  0  0  0  0  0  0
    8.8821    3.0025    0.7464 C   0  0  0  0  0  0  0  0  0  0  0  0
   10.9295    2.8437   -0.6688 C   0  0  0  0  0  3  0  0  0  0  0  0
   11.5430    3.9300    0.1721 C   0  0  0  0  0  0  0  0  0  0  0  0
   12.2660    3.3048    1.3433 C   0  0  0  0  0  3  0  0  0  0  0  0
   13.6587    3.0424    0.9518 N   0  0  0  0  0  0  0  0  0  0  0  0
   14.1448    1.8724    1.6619 C   0  0  0  0  0  0  0  0  0  0  0  0
   14.4035    4.1470    1.3864 N   0  0  0  0  0  0  0  0  0  0  0  0
   14.8211    5.1509    0.0123 S   0  0  0  0  0  0  0  0  0  0  0  0
   16.3784    6.0255    0.4007 C   0  0  0  0  0  3  0  0  0  0  0  0
   16.7197    6.8140   -0.6644 F   0  0  0  0  0  0  0  0  0  0  0  0
  1  2  1  0
  2  3  1  0
  2  4  1  0
  4  5  1  0
  5  6  1  0
  6  7  1  0
  7  8  1  1
  7  9  1  0
  9 10  1  0
 10 11  1  0
 11 12  1  0
 12 13  1  1
 12 14  1  0
 14 15  1  1
 15 16  1  0
 16 17  1  0
 16 18  1  0
 18 19  1  0
 19 20  1  0
 20 21  1  0
 21 22  1  0
 22 23  1  0
 23 24  1  0
 24 25  2  3
 25 26  1  0
 26 27  1  0
 27 28  1  0
 28 29  1  0
 29 30  1  0
 30 31  1  0
 31 32  1  0
 32 33  1  0
 33 34  1  0
 34 35  1  0
 35 36  1  0
 36 37  1  0
 37 38  1  0
 38 39  1  0
 39 40  1  0
 40 41  1  0
 41 42  1  1
 41 43  1  0
 43 44  1  0
 43 45  1  0
 45 46  1  6
 45 47  1  0
 47 48  1  0
 48 49  1  0
 49 50  1  0
 50 51  1  0
 51 52  1  6
 51 53  1  0
 53 54  1  0
 54 55  1  0
 55 56  1  0
 56 57  1  0
 57 58  1  0
 58 59  1  0
 59 60  1  0
 59 61  1  0
 61 62  1  1
 61 63  1  0
 63 64  1  1
 64 65  1  0
 65 66  1  0
 65 67  1  0
 67 68  1  0
 68 69  1  0
 69 70  1  0
 70 71  1  0
 70 72  1  0
 72 73  1  0
 73 74  1  0
 74 75  1  0
 75 76  1  6
 75 77  1  0
 77 78  1  0
 78 79  1  0
 79 80  1  0
 80 81  1  0
 80 82  1  0
 82 83  1  0
 83 84  1  0
 84 85  1  0
 63 14  1  0
 31 27  1  0
M  RAD  8   9   2  29   2  33   2  38   3  43   2  54   2  58   3  73   2
M  RAD  3  77   2  79   2  84   2
M  END
$$$$
