
     RDKit          3D

 15 15  0  0  0  0  0  0  0  0999 V2000
   -0.3328    2.2084    0.1608 C   0  0  0  0  0  0  0  0  0  0  0  0
   -0.6040    1.0783    1.1595 C   0  0  1  0  0  0  0  0  0  0  0  0
   -2.1285    0.9681    1.2235 C   0  0  0  0  0  0  0  0  0  0  0  0
   -2.5402    0.6147   -0.2014 C   0  0  2  0  0  0  0  0  0  0  0  0
   -3.8763    0.8187   -0.4386 O   0  0  0  0  0  0  0  0  0  0  0  0
   -2.1160   -0.8201   -0.4062 C   0  0  2  0  0  0  0  0  0  0  0  0
   -2.7615   -1.6895    0.4730 O   0  0  0  0  0  0  0  0  0  0  0  0
   -0.6437   -0.9564   -0.3429 C   0  0  1  0  0  0  0  0  0  0  0  0
   -0.0987   -0.8134   -1.6286 O   0  0  0  0  0  0  0  0  0  0  0  0
    0.0550   -0.1453    0.6671 C   0  0  1  0  0  0  0  0  0  0  0  0
    1.3863    0.2114    0.1518 N   0  0  0  0  0  0  0  0  0  0  0  0
    1.9236   -0.9327   -0.5328 C   0  0  0  0  0  3  0  0  0  0  0  0
    3.3136   -1.2116   -0.1721 C   0  0  0  0  0  0  0  0  0  0  0  0
    4.2818   -0.3450   -0.0845 C   0  0  0  0  0  0  0  0  0  0  0  0
    4.1412    1.0144   -0.3244 O   0  0  0  0  0  0  0  0  0  0  0  0
  2  1  1  6
  2  3  1  0
  3  4  1  0
  4  5  1  1
  4  6  1  0
  6  7  1  1
  6  8  1  0
  8  9  1  6
  8 10  1  0
 10 11  1  6
 11 12  1  0
 12 13  1  0
 13 14  2  3
 14 15  1  0
 10  2  1  0
M  RAD  1  12   2
M  END
$$$$
