
     RDKit          3D

 27 27  0  0  0  0  0  0  0  0999 V2000
   -2.6939   -1.7173    2.3840 C   0  0  0  0  0  0  0  0  0  0  0  0
   -3.2533   -2.0702    1.0219 C   0  0  1  0  0  0  0  0  0  0  0  0
   -4.7264   -1.8033    0.9582 C   0  0  0  0  0  0  0  0  0  0  0  0
   -5.2263   -1.6724   -0.4635 C   0  0  2  0  0  0  0  0  0  0  0  0
   -5.1237   -2.8752   -1.1202 O   0  0  0  0  0  0  0  0  0  0  0  0
   -4.5249   -0.5614   -1.2172 C   0  0  2  0  0  0  0  0  0  0  0  0
   -3.9005   -1.0755   -2.3661 O   0  0  0  0  0  0  0  0  0  0  0  0
   -3.4179   -0.0239   -0.3226 C   0  0  1  0  0  0  0  0  0  0  0  0
   -4.0433    0.3875    0.8671 O   0  0  0  0  0  0  0  0  0  0  0  0
   -2.5278   -1.2274    0.0018 C   0  0  1  0  0  0  0  0  0  0  0  0
   -1.2765   -0.7112    0.5786 N   0  0  0  0  0  0  0  0  0  0  0  0
   -0.6432    0.0751   -0.4362 C   0  0  0  0  0  3  0  0  0  0  0  0
    0.2056    1.2000    0.1383 C   0  0  0  0  0  0  0  0  0  0  0  0
    0.8049    1.9360   -1.0420 C   0  0  0  0  0  0  0  0  0  0  0  0
    1.6056    2.9907   -0.6755 O   0  0  0  0  0  0  0  0  0  0  0  0
    0.8851    3.9211    0.0537 C   0  0  0  0  0  3  0  0  0  0  0  0
    0.4985    4.9762   -0.7967 O   0  0  0  0  0  0  0  0  0  0  0  0
   -0.6547    2.1639    0.9440 C   0  0  0  0  0  2  0  0  0  0  0  0
    1.3198    0.6560    0.9942 C   0  0  0  0  0  0  0  0  0  0  0  0
    2.1141   -0.1576    0.2110 O   0  0  0  0  0  0  0  0  0  0  0  0
    3.1371   -0.6502    1.0192 C   0  0  2  0  0  0  0  0  0  0  0  0
    3.8702    0.4066    1.5183 O   0  0  0  0  0  0  0  0  0  0  0  0
    3.9744   -1.6130    0.2412 C   0  0  0  0  0  3  0  0  0  0  0  0
    4.5979   -0.9385   -0.9727 C   0  0  0  0  0  0  0  0  0  0  0  0
    5.4656    0.2016   -0.4700 C   0  0  0  0  0  3  0  0  0  0  0  0
    6.7590   -0.2558   -0.2391 O   0  0  0  0  0  0  0  0  0  0  0  0
    6.7746   -1.5618   -0.3592 O   0  0  0  0  0  0  0  0  0  0  0  0
  2  1  1  1
  2  3  1  0
  3  4  1  0
  4  5  1  6
  4  6  1  0
  6  7  1  6
  6  8  1  0
  8  9  1  1
  8 10  1  0
 10 11  1  1
 11 12  1  0
 12 13  1  0
 13 14  1  0
 14 15  1  0
 15 16  1  0
 16 17  1  0
 13 18  1  0
 13 19  1  0
 19 20  1  0
 20 21  1  0
 21 22  1  6
 21 23  1  0
 23 24  1  0
 24 25  1  0
 25 26  1  0
 26 27  1  0
 10  2  1  0
M  RAD  5  12   2  16   2  18   3  23   2  25   2
M  END
$$$$
