
     RDKit          3D

 24 24  0  0  0  0  0  0  0  0999 V2000
   -1.6768    1.2985   -1.9760 C   0  0  0  0  0  0  0  0  0  0  0  0
   -2.6125    1.0433   -0.7996 C   0  0  1  0  0  0  0  0  0  0  0  0
   -4.0278    0.7891   -1.2785 C   0  0  0  0  0  0  0  0  0  0  0  0
   -4.8667    0.6898    0.0019 C   0  0  2  0  0  0  0  0  0  0  0  0
   -4.4058    1.7037    0.8385 O   0  0  0  0  0  0  0  0  0  0  0  0
   -4.5445   -0.6411    0.6222 C   0  0  2  0  0  0  0  0  0  0  0  0
   -4.8164   -0.5948    1.9982 O   0  0  0  0  0  0  0  0  0  0  0  0
   -3.1688   -1.1313    0.3314 C   0  0  1  0  0  0  0  0  0  0  0  0
   -3.1684   -2.1626   -0.5883 O   0  0  0  0  0  0  0  0  0  0  0  0
   -2.1592   -0.1044    0.0248 C   0  0  1  0  0  0  0  0  0  0  0  0
   -1.0342   -0.7470   -0.6688 N   0  0  0  0  0  0  0  0  0  0  0  0
   -0.5683   -1.8766    0.1149 C   0  0  0  0  0  3  0  0  0  0  0  0
    0.0955   -1.3919    1.3686 C   0  0  0  0  0  0  0  0  0  0  0  0
    1.5797   -1.1630    1.1788 C   0  0  0  0  0  3  0  0  0  0  0  0
    2.1133   -0.7396    2.3952 O   0  0  0  0  0  0  0  0  0  0  0  0
    1.8164   -0.1240    0.1021 C   0  0  1  0  0  0  0  0  0  0  0  0
    1.1931    1.0750    0.3581 O   0  0  0  0  0  0  0  0  0  0  0  0
    3.2996    0.0914   -0.0738 C   0  0  1  0  0  0  0  0  0  0  0  0
    3.9761   -1.0840   -0.3338 O   0  0  0  0  0  0  0  0  0  0  0  0
    3.5594    1.0906   -1.1695 C   0  0  2  0  0  0  0  0  0  0  0  0
    3.1352    0.6089   -2.4077 O   0  0  0  0  0  0  0  0  0  0  0  0
    5.0579    1.3576   -1.2165 C   0  0  0  0  0  0  0  0  0  0  0  0
    5.4595    1.8370    0.0275 O   0  0  0  0  0  0  0  0  0  0  0  0
    5.7637    0.1753   -1.5276 O   0  0  0  0  0  0  0  0  0  0  0  0
  2  1  1  6
  2  3  1  0
  3  4  1  0
  4  5  1  1
  4  6  1  0
  6  7  1  1
  6  8  1  0
  8  9  1  6
  8 10  1  0
 10 11  1  6
 11 12  1  0
 12 13  1  0
 13 14  1  0
 14 15  1  0
 14 16  1  0
 16 17  1  1
 16 18  1  0
 18 19  1  6
 18 20  1  0
 20 21  1  6
 20 22  1  0
 22 23  1  0
 22 24  1  0
 10  2  1  0
M  RAD  2  12   2  14   2
M  END
$$$$
