
     RDKit          3D

 18 17  0  0  0  0  0  0  0  0999 V2000
   -2.0748    1.5119   -1.0835 C   0  0  0  0  0  0  0  0  0  0  0  0
   -1.5855    0.3178   -0.2929 C   0  0  2  0  0  0  0  0  0  0  0  0
   -1.8649    0.4692    1.1266 N   0  0  0  0  0  0  0  0  0  0  0  0
   -3.2675    0.5495    1.4184 C   0  0  0  0  0  0  0  0  0  0  0  0
   -3.9799   -0.7474    1.1603 C   0  0  0  0  0  0  0  0  0  0  0  0
   -5.4182   -0.6175    1.4764 C   0  0  0  0  0  0  0  0  0  0  0  0
   -5.8581    0.4384    1.8696 O   0  0  0  0  0  0  0  0  0  0  0  0
    0.2086    0.1530   -0.4470 S   0  0  0  0  0  0  0  0  0  0  0  0
    0.7415   -0.2521   -2.1133 C   0  0  0  0  0  0  0  0  0  0  0  0
    0.2836   -1.6228   -2.5060 C   0  0  0  0  0  2  0  0  0  0  0  0
    0.2308    0.7646   -3.1300 C   0  0  0  0  0  0  0  0  0  0  0  0
    0.7413    0.3068   -4.4314 N   0  0  0  0  0  0  0  0  0  0  0  0
    2.2573   -0.1322   -2.1362 C   0  0  0  0  0  0  0  0  0  0  0  0
    2.9795   -1.2796   -0.9370 S   0  0  0  0  0  0  0  0  0  0  0  0
    2.3982   -0.6300    1.0013 S   0  0  0  0  0  0  0  0  0  0  0  0
    3.8388    0.7162    1.7376 S   0  0  0  0  0  0  0  0  0  0  0  0
    5.3777   -0.2908    2.8137 S   0  0  0  0  0  0  0  0  0  0  0  0
    4.9918   -0.4210    4.4734 F   0  0  0  0  0  0  0  0  0  0  0  0
  2  1  1  6
  2  3  1  0
  3  4  1  0
  4  5  1  0
  5  6  1  0
  6  7  2  0
  2  8  1  0
  8  9  1  0
  9 10  1  0
  9 11  1  0
 11 12  1  0
  9 13  1  0
 13 14  1  0
 14 15  1  0
 15 16  1  0
 16 17  1  0
 17 18  1  0
M  RAD  1  10   3
M  END
$$$$
