
     RDKit          3D

 19 18  0  0  0  0  0  0  0  0999 V2000
   -3.1624   -3.1542    1.9906 O   0  0  0  0  0  1  0  0  0  0  0  0
   -4.1164   -2.7870    1.0679 C   0  0  0  0  0  0  0  0  0  0  0  0
   -5.4076   -2.7416    1.5964 O   0  0  0  0  0  0  0  0  0  0  0  0
   -3.7683   -1.4513    0.5050 C   0  0  0  0  0  0  0  0  0  0  0  0
   -2.4008   -1.5584   -0.1646 C   0  0  0  0  0  0  0  0  0  0  0  0
   -2.0821   -0.2252   -0.7118 C   0  0  0  0  0  0  0  0  0  0  0  0
   -0.9973    0.3930   -0.2810 C   0  0  0  0  0  0  0  0  0  0  0  0
   -0.6740    1.6944   -0.8062 C   0  0  0  0  0  0  0  0  0  0  0  0
   -1.7891    2.5196   -2.1037 Br  0  0  0  0  0  0  0  0  0  0  0  0
    0.4285    2.2784   -0.3425 C   0  0  0  0  0  0  0  0  0  0  0  0
    0.7326    3.5300   -0.8526 O   0  0  0  0  0  0  0  0  0  0  0  0
    1.6774    4.3299   -0.1822 C   0  0  0  0  0  0  0  0  0  0  0  0
    1.3013    1.6420    0.6673 C   0  0  0  0  0  0  0  0  0  0  0  0
    2.7068    1.4358    0.1570 C   0  0  0  0  0  0  0  0  0  0  0  0
    2.7821    0.5649   -1.0538 C   0  0  0  0  0  0  0  0  0  0  0  0
    2.2336   -0.8240   -0.8161 C   0  0  0  0  0  0  0  0  0  0  0  0
    2.9689   -1.5496    0.2616 C   0  0  0  0  0  0  0  0  0  0  0  0
    4.4418   -1.7140   -0.0693 C   0  0  0  0  0  0  0  0  0  0  0  0
    5.1249   -2.3828    0.9218 O   0  0  0  0  0  1  0  0  0  0  0  0
  1  2  1  0
  2  3  1  0
  2  4  1  0
  4  5  1  0
  5  6  1  0
  6  7  2  3
  7  8  1  0
  8  9  1  0
  8 10  2  3
 10 11  1  0
 11 12  1  0
 10 13  1  0
 13 14  1  0
 14 15  1  0
 15 16  1  0
 16 17  1  0
 17 18  1  0
 18 19  1  0
M  CHG  2   1  -1  19  -1
M  END
$$$$
