
     RDKit          3D

 21 22  0  0  0  0  0  0  0  0999 V2000
    1.3936    2.2939    0.5284 C   0  0  0  0  0  0  0  0  0  0  0  0
    2.3683    1.5096    0.0620 C   0  0  0  0  0  0  0  0  0  0  0  0
    3.6920    1.8417    0.1197 O   0  0  0  0  0  0  0  0  0  0  0  0
    4.6459    0.8287   -0.1696 C   0  0  0  0  0  3  0  0  0  0  0  0
    4.0516   -0.3108   -0.8972 C   0  0  0  0  0  0  0  0  0  0  0  0
    3.5341   -1.2998   -0.1916 C   0  0  0  0  0  0  0  0  0  0  0  0
    2.6016   -1.8910   -0.6842 N   0  0  0  0  0  4  0  0  0  0  0  0
    1.6078   -2.3360   -0.0897 C   0  0  0  0  0  0  0  0  0  0  0  0
    0.2704   -2.0254   -0.3601 N   0  0  0  0  0  0  0  0  0  0  0  0
   -0.1541   -0.3106   -0.4736 S   0  0  0  0  0  0  0  0  0  0  0  0
   -0.2818    0.7154    0.7597 C   0  0  0  0  0  0  0  0  0  0  0  0
    0.0264    1.9220    0.4545 N   0  0  0  0  0  4  0  0  0  0  0  0
   -0.9730    2.8151    0.0666 N   0  0  0  0  0  0  0  0  0  0  0  0
   -2.1967    2.4627   -0.3370 O   0  0  0  0  0  0  0  0  0  0  0  0
   -2.7888    1.4932    0.4414 C   0  0  0  0  0  0  0  0  0  0  0  0
   -4.0069    0.9459   -0.2824 C   0  0  0  0  0  3  0  0  0  0  0  0
   -4.4587   -0.1779    0.4296 O   0  0  0  0  0  0  0  0  0  0  0  0
   -3.8883   -1.3914    0.1265 N   0  0  0  0  0  0  0  0  0  0  0  0
   -2.6255   -1.4109   -0.1421 C   0  0  0  0  0  0  0  0  0  0  0  0
   -2.0458   -2.7143   -0.4607 C   0  0  0  0  0  0  0  0  0  0  0  0
   -0.7721   -2.9600   -0.5509 C   0  0  0  0  0  0  0  0  0  0  0  0
  1  2  2  3
  2  3  1  0
  3  4  1  0
  4  5  1  0
  5  6  2  0
  6  7  2  0
  7  8  2  0
  8  9  1  0
  9 10  1  0
 10 11  2  0
 11 12  2  0
 12 13  1  0
 13 14  1  0
 14 15  1  0
 15 16  1  0
 16 17  1  0
 17 18  1  0
 18 19  2  3
 19 20  1  0
 20 21  2  3
 12  1  1  0
 21  9  1  0
M  CHG  2   7   1  12   1
M  RAD  2   4   2  16   2
M  END
$$$$
