
     RDKit          3D

 23 23  0  0  0  0  0  0  0  0999 V2000
   -1.9032   -2.3544   -0.4173 C   0  0  0  0  0  0  0  0  0  0  0  0
   -3.0004   -1.3248   -0.3766 C   0  0  1  0  0  0  0  0  0  0  0  0
   -3.9528   -1.6904    0.7451 C   0  0  0  0  0  0  0  0  0  0  0  0
   -5.1421   -0.7536    0.7357 C   0  0  2  0  0  0  0  0  0  0  0  0
   -6.2107   -1.2691    0.0055 O   0  0  0  0  0  0  0  0  0  0  0  0
   -4.7612    0.6051    0.1676 C   0  0  2  0  0  0  0  0  0  0  0  0
   -4.6864    0.4552   -1.2274 O   0  0  0  0  0  0  0  0  0  0  0  0
   -3.3619    0.9152    0.6482 C   0  0  1  0  0  0  0  0  0  0  0  0
   -3.2612    0.5080    1.9829 O   0  0  0  0  0  0  0  0  0  0  0  0
   -2.4087    0.0532   -0.1724 C   0  0  1  0  0  0  0  0  0  0  0  0
   -1.1094   -0.0241    0.4531 N   0  0  0  0  0  0  0  0  0  0  0  0
   -0.1778   -0.7219   -0.3771 C   0  0  0  0  0  3  0  0  0  0  0  0
    0.8027    0.2354   -0.9800 C   0  0  0  0  0  0  0  0  0  0  0  0
    2.0363    0.4405   -0.1197 C   0  0  0  0  0  0  0  0  0  0  0  0
    2.6364   -0.8036    0.0169 O   0  0  0  0  0  0  0  0  0  0  0  0
    1.5559    0.8682    1.2415 C   0  0  0  0  0  0  0  0  0  0  0  0
    2.8298    1.3649   -0.7541 O   0  0  0  0  0  0  0  0  0  0  0  0
    4.0274    1.6321   -0.1278 C   0  0  1  0  0  0  0  0  0  0  0  0
    3.7376    2.1346    1.1616 O   0  0  0  0  0  0  0  0  0  0  0  0
    4.8924    0.4090    0.0506 C   0  0  2  0  0  0  0  0  0  0  0  0
    6.0612    0.8239    0.6872 O   0  0  0  0  0  0  0  0  0  0  0  0
    5.2959   -0.1865   -1.2815 C   0  0  0  0  0  3  0  0  0  0  0  0
    6.1003   -1.3170   -1.0277 O   0  0  0  0  0  0  0  0  0  0  0  0
  2  1  1  1
  2  3  1  0
  3  4  1  0
  4  5  1  6
  4  6  1  0
  6  7  1  6
  6  8  1  0
  8  9  1  1
  8 10  1  0
 10 11  1  1
 11 12  1  0
 12 13  1  0
 13 14  1  0
 14 15  1  0
 14 16  1  0
 14 17  1  0
 17 18  1  0
 18 19  1  1
 18 20  1  0
 20 21  1  6
 20 22  1  0
 22 23  1  0
 10  2  1  0
M  RAD  2  12   2  22   2
M  END
$$$$
