
     RDKit          3D

 10 11  0  0  0  0  0  0  0  0999 V2000
    3.0600   -0.3879    0.5727 N   0  0  0  0  0  0  0  0  0  0  0  0
    1.7404   -0.0145    0.1801 C   0  0  0  0  0  0  0  0  0  0  0  0
    0.9544   -0.8898   -0.3083 N   0  0  0  0  0  0  0  0  0  0  0  0
   -0.3769   -0.6944   -0.7465 C   0  0  0  0  0  0  0  0  0  0  0  0
   -1.3545   -1.5518   -0.1192 N   0  0  0  0  0  0  0  0  0  0  0  0
   -2.2849   -0.7007    0.5243 C   0  0  0  0  0  0  0  0  0  0  0  0
   -2.0697    0.5436    0.2631 N   0  0  0  0  0  0  0  0  0  0  0  0
   -0.9196    0.6766   -0.6247 C   0  0  0  0  0  0  0  0  0  0  0  0
    0.0095    1.6674   -0.0576 C   0  0  0  0  0  0  0  0  0  0  0  0
    1.2414    1.3515    0.3161 C   0  0  0  0  0  0  0  0  0  0  0  0
  1  2  1  0
  2  3  2  0
  3  4  1  0
  4  5  1  0
  5  6  1  0
  6  7  2  0
  7  8  1  0
  8  9  1  0
  9 10  2  0
 10  2  1  0
  8  4  1  0
M  END
$$$$
