
     RDKit          3D

 18 17  0  0  0  0  0  0  0  0999 V2000
    5.1155   -0.6776    0.8722 C   0  0  0  0  0  0  0  0  0  0  0  0
    4.2578   -1.6813    0.4666 O   0  0  0  0  0  0  0  0  0  0  0  0
    2.9210   -1.0510    0.6331 C   0  0  0  0  0  3  0  0  0  0  0  0
    2.0724   -1.8568   -0.1382 O   0  0  0  0  0  0  0  0  0  0  0  0
    0.7911   -1.4700   -0.0627 C   0  0  2  0  0  0  0  0  0  0  0  0
    0.6928   -1.0213   -1.6156 C   0  0  0  0  0  0  0  0  0  0  0  0
    1.9738   -0.0009   -1.6049 C   0  0  0  0  0  0  0  0  0  0  0  0
    0.3363   -0.4037    0.7851 C   0  0  1  0  0  0  0  0  0  0  0  0
    0.7937    0.8946    0.5780 N   0  0  0  0  0  0  0  0  0  0  0  0
    0.0868    1.7144   -0.4292 C   0  0  0  0  0  3  0  0  0  0  0  0
   -0.1545    3.0716    0.3435 C   0  0  0  0  0  3  0  0  0  0  0  0
    0.9667    4.0415    0.0003 C   0  0  0  0  0  0  0  0  0  0  0  0
   -1.2940   -0.4680    0.5930 C   0  0  0  0  0  0  0  0  0  0  0  0
   -1.4717    0.0179   -0.7114 O   0  0  0  0  0  0  0  0  0  0  0  0
   -2.7011    0.3507   -1.0674 C   0  0  0  0  0  3  0  0  0  0  0  0
   -3.8652    0.3419   -0.1361 C   0  0  0  0  0  0  0  0  0  0  0  0
   -4.6750   -0.8914   -0.5902 C   0  0  0  0  0  0  0  0  0  0  0  0
   -5.8464   -0.9107   -0.4345 O   0  0  0  0  0  0  0  0  0  0  0  0
  1  2  1  0
  2  3  1  0
  3  4  1  0
  4  5  1  0
  5  6  1  6
  6  7  1  0
  5  8  1  0
  8  9  1  0
  9 10  1  0
 10 11  1  0
 11 12  1  0
  8 13  1  6
 13 14  1  0
 14 15  1  0
 15 16  1  0
 16 17  1  0
 17 18  2  0
M  RAD  4   3   2  10   2  11   2  15   2
M  END
$$$$
