
     RDKit          2D

 25 29  0  0  0  0  0  0  0  0999 V2000
   -0.3846    1.6852    0.0000 C   0  0  0  0  0  0  0  0  0  0  0  0
   -1.4344    2.7567    0.0000 O   0  0  0  0  0  0  0  0  0  0  0  0
   -1.7383    4.2256    0.0000 C   0  0  0  0  0  0  0  0  0  0  0  0
   -1.1998    5.6256    0.0000 C   0  0  0  0  0  0  0  0  0  0  0  0
    0.0101    6.5122    0.0000 C   0  0  0  0  0  0  0  0  0  0  0  0
    1.5073    6.6039    0.0000 C   0  0  0  0  0  0  0  0  0  0  0  0
    1.8411    8.0663    0.0000 N   0  0  0  0  0  0  0  0  0  0  0  0
    2.8164    5.8717    0.0000 C   0  0  0  0  0  0  0  0  0  0  0  0
    2.8363    4.4061    0.0000 C   0  0  0  0  0  0  0  0  0  0  0  0
    3.3996    3.0529    0.0000 C   0  0  0  0  0  0  0  0  0  0  0  0
    4.6754    3.8416    0.0000 C   0  0  0  0  0  0  0  0  0  0  0  0
    5.3568    3.4278    0.0000 Br  0  0  0  0  0  0  0  0  0  0  0  0
    5.1458    5.2660    0.0000 C   0  0  0  0  0  0  0  0  0  0  0  0
    3.9135    4.6092    0.0000 C   0  0  0  0  0  0  0  0  0  0  0  0
    4.4009    3.1906    0.0000 C   0  0  0  0  0  0  0  0  0  0  0  0
    5.1902    3.0791    0.0000 C   0  0  0  0  0  0  0  0  0  0  0  0
    3.8624    1.7906    0.0000 C   0  0  0  0  0  0  0  0  0  0  0  0
    2.5500    1.0642    0.0000 C   0  0  0  0  0  0  0  0  0  0  0  0
    1.0777    1.3515    0.0000 C   0  0  0  0  0  0  0  0  0  0  0  0
    1.7286    0.0000    0.0000 C   0  0  0  0  0  0  0  0  0  0  0  0
    1.0777   -1.3515    0.0000 C   0  0  0  0  0  0  0  0  0  0  0  0
   -0.3846   -1.6852    0.0000 C   0  0  0  0  0  0  0  0  0  0  0  0
   -1.5574   -0.7500    0.0000 C   0  0  0  0  0  0  0  0  0  0  0  0
   -1.5574    0.7500    0.0000 C   0  0  0  0  0  0  0  0  0  0  0  0
    2.4884    1.8613    0.0000 C   0  0  0  0  0  0  0  0  0  0  0  0
  1  2  1  0
  2  3  1  0
  3  4  2  3
  4  5  1  0
  5  6  2  3
  6  7  1  0
  6  8  1  0
  8  9  1  0
  9 10  2  0
 10 11  1  0
 11 12  1  0
 11 13  2  0
 13 14  1  0
 14 15  1  0
 15 16  1  0
 15 17  1  0
 17 18  3  0
 18 19  1  0
 19 20  1  0
 20 21  1  0
 21 22  1  0
 22 23  1  0
 23 24  2  0
 24 25  1  0
 19  1  1  0
 24  1  1  0
 14  8  2  0
 25 10  1  0
 25 19  1  0
M  END
$$$$
