
     RDKit          2D

 76 76  0  0  0  0  0  0  0  0999 V2000
   10.6771   -9.0933    0.0000 C   0  0  0  0  0  0  0  0  0  0  0  0
    9.1771   -9.0933    0.0000 C   0  0  0  0  0  0  0  0  0  0  0  0
    8.4271  -10.3923    0.0000 C   0  0  0  0  0  0  0  0  0  0  0  0
    8.4271   -7.7942    0.0000 C   0  0  0  0  0  0  0  0  0  0  0  0
    6.9271   -7.7942    0.0000 C   0  0  0  0  0  0  0  0  0  0  0  0
    6.1771   -6.4952    0.0000 C   0  0  0  0  0  0  0  0  0  0  0  0
    4.6771   -6.4952    0.0000 C   0  0  0  0  0  0  0  0  0  0  0  0
    3.9271   -7.7942    0.0000 C   0  0  0  0  0  0  0  0  0  0  0  0
    3.9271   -5.1962    0.0000 C   0  0  0  0  0  3  0  0  0  0  0  0
    4.6771   -3.8971    0.0000 C   0  0  0  0  0  0  0  0  0  0  0  0
    3.9271   -2.5981    0.0000 C   0  0  0  0  0  0  0  0  0  0  0  0
    4.6771   -1.2990    0.0000 C   0  0  0  0  0  0  0  0  0  0  0  0
    6.1771   -1.2990    0.0000 C   0  0  0  0  0  0  0  0  0  0  0  0
    3.9271    0.0000    0.0000 C   0  0  0  0  0  0  0  0  0  0  0  0
    2.4271    0.0000    0.0000 C   0  0  0  0  0  0  0  0  0  0  0  0
    1.9635   -1.4266    0.0000 C   0  0  0  0  0  0  0  0  0  0  0  0
    1.9635    1.4266    0.0000 C   0  0  0  0  0  0  0  0  0  0  0  0
    0.7500    2.3083    0.0000 C   0  0  0  0  0  0  0  0  0  0  0  0
   -0.7500    2.3083    0.0000 C   0  0  0  0  0  0  0  0  0  0  0  0
   -0.2865    3.7348    0.0000 O   0  0  0  0  0  0  0  0  0  0  0  0
   -1.9635    3.1899    0.0000 C   0  0  0  0  0  0  0  0  0  0  0  0
   -1.9635    1.4266    0.0000 C   0  0  0  0  0  0  0  0  0  0  0  0
   -2.4271    0.0000    0.0000 O   0  0  0  0  0  0  0  0  0  0  0  0
   -1.9635   -1.4266    0.0000 O   0  0  0  0  0  0  0  0  0  0  0  0
   -0.7500   -2.3083    0.0000 N   0  0  0  0  0  0  0  0  0  0  0  0
    0.7500   -2.3083    0.0000 C   0  0  0  0  0  0  0  0  0  0  0  0
    1.9635   -3.1899    0.0000 C   0  0  0  0  0  0  0  0  0  0  0  0
    0.2865   -3.7348    0.0000 C   0  0  0  0  0  3  0  0  0  0  0  0
    1.2902   -4.8496    0.0000 O   0  0  0  0  0  0  0  0  0  0  0  0
    0.8266   -6.2761    0.0000 C   0  0  0  0  0  0  0  0  0  0  0  0
    1.8303   -7.3909    0.0000 C   0  0  0  0  0  0  0  0  0  0  0  0
   -0.6406   -6.5880    0.0000 C   0  0  0  0  0  0  0  0  0  0  0  0
   -1.1041   -8.0146    0.0000 C   0  0  0  0  0  2  0  0  0  0  0  0
   -1.6443   -5.4733    0.0000 C   0  0  0  0  0  0  0  0  0  0  0  0
   -3.1115   -5.7852    0.0000 C   0  0  0  0  0  0  0  0  0  0  0  0
   -4.1152   -4.6705    0.0000 C   0  0  0  0  0  0  0  0  0  0  0  0
   -3.5750   -7.2118    0.0000 C   0  0  0  0  0  0  0  0  0  0  0  0
   -5.0422   -7.5236    0.0000 C   0  0  0  0  0  0  0  0  0  0  0  0
   -5.5058   -8.9502    0.0000 C   0  0  0  0  0  0  0  0  0  0  0  0
   -4.5021  -10.0649    0.0000 F   0  0  0  0  0  0  0  0  0  0  0  0
   -6.9730   -9.2621    0.0000 C   0  0  0  0  0  0  0  0  0  0  0  0
   -7.9767   -8.1474    0.0000 O   0  0  0  0  0  0  0  0  0  0  0  0
   -7.4365  -10.6887    0.0000 C   0  0  0  0  0  3  0  0  0  0  0  0
   -8.9037  -11.0005    0.0000 C   0  0  0  0  0  0  0  0  0  0  0  0
   -9.9074   -9.8858    0.0000 F   0  0  0  0  0  0  0  0  0  0  0  0
   -9.3673  -12.4271    0.0000 C   0  0  0  0  0  0  0  0  0  0  0  0
  -10.8345  -12.7390    0.0000 O   0  0  0  0  0  0  0  0  0  0  0  0
  -11.2980  -14.1656    0.0000 C   0  0  0  0  0  0  0  0  0  0  0  0
  -12.7652  -14.4774    0.0000 C   0  0  0  0  0  0  0  0  0  0  0  0
  -13.2288  -15.9040    0.0000 C   0  0  0  0  0  0  0  0  0  0  0  0
  -11.8022  -16.3675    0.0000 C   0  0  0  0  0  2  0  0  0  0  0  0
  -14.6553  -15.4405    0.0000 C   0  0  0  0  0  2  0  0  0  0  0  0
  -13.6923  -17.3306    0.0000 C   0  0  0  0  0  3  0  0  0  0  0  0
  -15.1595  -17.6425    0.0000 F   0  0  0  0  0  0  0  0  0  0  0  0
  -12.6886  -18.4453    0.0000 C   0  0  0  0  0  0  0  0  0  0  0  0
  -13.1521  -19.8719    0.0000 C   0  0  0  0  0  0  0  0  0  0  0  0
  -12.1484  -20.9866    0.0000 C   0  0  0  0  0  0  0  0  0  0  0  0
  -12.6119  -22.4132    0.0000 C   0  0  0  0  0  2  0  0  0  0  0  0
  -10.6812  -20.6748    0.0000 C   0  0  0  0  0  0  0  0  0  0  0  0
   -9.6775  -21.7895    0.0000 C   0  0  0  0  0  0  0  0  0  0  0  0
   -8.2103  -21.4776    0.0000 C   0  0  0  0  0  0  0  0  0  0  0  0
   -7.7467  -20.0510    0.0000 C   0  0  0  0  0  0  0  0  0  0  0  0
   -6.2795  -19.7391    0.0000 C   0  0  0  0  0  0  0  0  0  0  0  0
   -5.8160  -18.3126    0.0000 C   0  0  0  0  0  2  0  0  0  0  0  0
   -5.2758  -20.8539    0.0000 O   0  0  0  0  0  0  0  0  0  0  0  0
   -7.2066  -22.5923    0.0000 C   0  0  0  0  0  0  0  0  0  0  0  0
   -5.7394  -22.2804    0.0000 C   0  0  0  0  0  3  0  0  0  0  0  0
   -4.7357  -23.3952    0.0000 C   0  0  0  0  0  0  0  0  0  0  0  0
   -3.2684  -23.0833    0.0000 C   0  0  0  0  0  0  0  0  0  0  0  0
   -2.2647  -24.1980    0.0000 C   0  0  0  0  0  0  0  0  0  0  0  0
   -2.7283  -25.6246    0.0000 N   0  0  0  0  0  0  0  0  0  0  0  0
   -0.7975  -23.8861    0.0000 C   0  0  0  0  0  0  0  0  0  0  0  0
    0.2062  -25.0009    0.0000 C   0  0  0  0  0  2  0  0  0  0  0  0
   -0.3340  -22.4596    0.0000 C   0  0  0  0  0  0  0  0  0  0  0  0
    1.1332  -22.1477    0.0000 N   0  0  0  0  0  0  0  0  0  0  0  0
    1.5968  -20.7211    0.0000 C   0  0  0  0  0  0  0  0  0  0  0  0
  1  2  1  0
  2  3  1  0
  2  4  1  0
  4  5  1  0
  5  6  1  0
  6  7  1  0
  7  8  1  1
  7  9  1  0
  9 10  1  0
 10 11  1  0
 11 12  1  0
 12 13  1  1
 12 14  1  0
 14 15  1  0
 15 16  1  0
 15 17  1  0
 17 18  1  0
 18 19  1  0
 19 20  1  0
 19 21  1  0
 19 22  1  0
 22 23  1  0
 23 24  1  0
 24 25  1  0
 25 26  1  0
 26 27  1  0
 26 28  1  0
 28 29  1  0
 29 30  1  0
 30 31  1  6
 30 32  1  0
 32 33  1  6
 32 34  1  0
 34 35  1  0
 35 36  1  1
 35 37  1  0
 37 38  1  0
 38 39  1  0
 39 40  1  0
 39 41  1  0
 41 42  1  1
 41 43  1  0
 43 44  1  0
 44 45  1  1
 44 46  1  0
 46 47  1  0
 47 48  1  0
 48 49  1  0
 49 50  1  0
 50 51  1  0
 50 52  1  0
 50 53  1  0
 53 54  1  0
 53 55  1  0
 55 56  1  0
 56 57  1  0
 57 58  1  1
 57 59  1  0
 59 60  1  0
 60 61  1  0
 61 62  1  0
 62 63  1  0
 63 64  1  6
 63 65  1  0
 61 66  1  0
 66 67  1  0
 67 68  1  0
 68 69  1  0
 69 70  1  0
 70 71  1  1
 70 72  1  0
 72 73  1  1
 72 74  1  0
 74 75  1  0
 75 76  1  0
 26 16  1  0
M  RAD  8   9   2  28   2  33   3  43   2  51   3  52   3  53   2  58   3
M  RAD  3  64   3  67   2  73   3
M  END
$$$$
