
     RDKit          3D

  7  6  0  0  0  0  0  0  0  0999 V2000
   -3.3222    0.5509    0.6024 O   0  0  0  0  0  0  0  0  0  0  0  0
   -2.1563    0.3651    1.0199 N   0  0  0  0  0  3  0  0  0  0  0  0
   -1.1762   -0.0242    0.1747 O   0  0  0  0  0  0  0  0  0  0  0  0
    0.3939    0.6305    0.0791 S   0  0  0  0  0  0  0  0  0  0  0  0
    1.2554   -0.0257   -1.2346 O   0  0  0  0  0  0  0  0  0  0  0  0
    2.0475   -1.0707   -0.7941 C   0  0  0  0  0  0  0  0  0  0  0  0
    2.9579   -0.6716    0.1526 F   0  0  0  0  0  0  0  0  0  0  0  0
  1  2  2  0
  2  3  1  0
  3  4  1  0
  4  5  1  0
  5  6  1  0
  6  7  1  0
M  CHG  1   2   1
M  RAD  1   2   2
M  END
$$$$
