
     RDKit          3D

 37 40  0  0  0  0  0  0  0  0999 V2000
   -0.3085    1.4249   -2.2530 C   0  0  0  0  0  0  0  0  0  0  0  0
   -1.3946    0.8413   -1.7116 C   0  0  0  0  0  0  0  0  0  0  0  0
   -2.6756    0.9752   -2.4489 C   0  0  0  0  0  0  0  0  0  0  0  0
   -3.8332    0.8514   -1.4735 C   0  0  0  0  0  0  0  0  0  0  0  0
   -3.3735    1.4785   -0.1849 C   0  0  1  0  0  0  0  0  0  0  0  0
   -4.4947    1.9203    0.7028 C   0  0  0  0  0  0  0  0  0  0  0  0
   -5.3828    2.8468   -0.1248 C   0  0  0  0  0  0  0  0  0  0  0  0
   -5.2841    0.7500    1.2145 C   0  0  0  0  0  0  0  0  0  0  0  0
   -3.8809    2.6712    1.8776 C   0  0  0  0  0  0  0  0  0  0  0  0
   -2.3893    2.8893    1.6615 C   0  0  0  0  0  0  0  0  0  0  0  0
   -1.7464    1.5141    1.6120 C   0  0  0  0  0  0  0  0  0  0  0  0
   -2.3928    0.6386    0.5637 C   0  0  1  0  0  0  0  0  0  0  0  0
   -3.0549   -0.5058    1.3117 C   0  0  0  0  0  0  0  0  0  0  0  0
   -1.3807    0.0993   -0.4325 C   0  0  0  0  0  0  0  0  0  0  0  0
   -1.7028   -1.3583   -0.6545 C   0  0  0  0  0  0  0  0  0  0  0  0
   -1.5243   -2.1967    0.5269 C   0  0  0  0  0  0  0  0  0  0  0  0
   -0.5961   -3.0896    0.7225 C   0  0  0  0  0  0  0  0  0  0  0  0
   -0.6013   -3.8261    1.9926 C   0  0  0  0  0  0  0  0  0  0  0  0
   -1.4463   -3.6373    2.8815 O   0  0  0  0  0  0  0  0  0  0  0  0
    0.4266   -3.3419   -0.3171 C   0  0  0  0  0  0  0  0  0  0  0  0
    1.7863   -3.5142    0.2384 C   0  0  0  0  0  0  0  0  0  0  0  0
    1.8100   -3.8698    1.4686 O   0  0  0  0  0  0  0  0  0  0  0  0
    2.9197   -3.3219   -0.4678 O   0  0  0  0  0  0  0  0  0  0  0  0
    3.4389   -2.2176   -1.1438 C   0  0  0  0  0  0  0  0  0  0  0  0
    3.6412   -1.1053   -0.2357 C   0  0  0  0  0  0  0  0  0  0  0  0
    3.7270    0.1575   -0.4903 C   0  0  0  0  0  0  0  0  0  0  0  0
    3.9271    1.3425    0.3153 N   0  0  0  0  0  0  0  0  0  0  0  0
    4.0440    1.2652    1.7733 C   0  0  0  0  0  0  0  0  0  0  0  0
    2.9065    1.8812    2.5059 C   0  0  0  0  0  0  0  0  0  0  0  0
    1.5748    1.2638    2.2119 C   0  0  0  0  0  0  0  0  0  0  0  0
    4.0080    2.5509   -0.4068 C   0  0  0  0  0  0  0  0  0  0  0  0
    4.6624    2.2906   -1.7764 C   0  0  0  0  0  0  0  0  0  0  0  0
    3.6273    0.7813   -2.1385 S   0  0  0  0  0  0  0  0  0  0  0  0
    2.1413    1.3406   -2.5163 C   0  0  0  0  0  0  0  0  0  0  0  0
    1.0160    1.2989   -1.5164 C   0  0  0  0  0  0  0  0  0  0  0  0
    0.9474   -0.1790   -1.0357 C   0  0  0  0  0  0  0  0  0  0  0  0
    0.8580   -0.9098   -2.2522 F   0  0  0  0  0  0  0  0  0  0  0  0
  1  2  2  3
  2  3  1  0
  3  4  1  0
  5  4  1  6
  5  6  1  0
  6  7  1  0
  6  8  1  0
  6  9  1  0
  9 10  1  0
 10 11  1  0
 11 12  1  0
 12 13  1  1
 12 14  1  0
 14 15  1  0
 15 16  1  0
 16 17  2  0
 17 18  1  0
 18 19  2  0
 17 20  1  0
 20 21  1  0
 21 22  2  0
 21 23  1  0
 23 24  1  0
 24 25  1  0
 25 26  2  3
 26 27  1  0
 27 28  1  0
 28 29  1  0
 29 30  1  0
 27 31  1  0
 31 32  1  0
 32 33  1  0
 33 34  2  3
 34 35  1  0
 35 36  1  0
 36 37  1  0
 35  1  1  0
 14  2  1  0
 12  5  1  0
 33 26  1  0
M  END
$$$$
