
     RDKit          3D

 25 27  0  0  0  0  0  0  0  0999 V2000
   -3.2339    0.7152    1.7925 C   0  0  0  0  0  0  0  0  0  0  0  0
   -2.7297   -0.2452    0.7721 C   0  0  0  0  0  0  0  0  0  0  0  0
   -3.8611   -0.6585   -0.1789 C   0  0  0  0  0  0  0  0  0  0  0  0
   -2.1590   -1.5022    1.4452 C   0  0  0  0  0  0  0  0  0  0  0  0
   -0.6705   -1.3818    1.5607 C   0  0  0  0  0  0  0  0  0  0  0  0
    0.0701   -2.6479    1.2684 C   0  0  0  0  0  0  0  0  0  0  0  0
    1.5454   -2.3954    1.0872 C   0  0  1  0  0  0  0  0  0  0  0  0
    2.1035   -3.2370   -0.0366 C   0  0  0  0  0  2  0  0  0  0  0  0
    1.8833   -0.9728    0.8248 C   0  0  0  0  0  0  0  0  0  0  0  0
    1.3079   -0.0208    1.7903 C   0  0  0  0  0  0  0  0  0  0  0  0
    0.7882    1.0958    1.2970 C   0  0  0  0  0  0  0  0  0  0  0  0
    0.2041    2.0630    2.2643 C   0  0  0  0  0  3  0  0  0  0  0  0
   -1.1020    2.6276    1.6811 C   0  0  0  0  0  3  0  0  0  0  0  0
   -1.0405    2.7251    0.1990 C   0  0  0  0  0  0  0  0  0  0  0  0
   -1.7902    1.6872   -0.5626 C   0  0  0  0  0  0  0  0  0  0  0  0
   -1.6088    0.2781   -0.0931 C   0  0  2  0  0  0  0  0  0  0  0  0
   -1.6471   -0.5928   -1.3589 C   0  0  0  0  0  3  0  0  0  0  0  0
   -1.8108    0.3862   -2.4983 C   0  0  0  0  0  3  0  0  0  0  0  0
   -1.1017    1.5991   -1.9402 C   0  0  0  0  0  0  0  0  0  0  0  0
    0.3133    1.1829   -1.6249 C   0  0  0  0  0  0  0  0  0  0  0  0
    0.5711    0.0742   -1.0053 C   0  0  0  0  0  0  0  0  0  0  0  0
    1.8069   -0.5428   -0.5912 C   0  0  0  0  0  3  0  0  0  0  0  0
    2.9055    0.1528   -1.0447 O   0  0  0  0  0  0  0  0  0  0  0  0
    4.0677   -0.6287   -1.0439 C   0  0  0  0  0  0  0  0  0  0  0  0
    5.1883    0.2389   -1.5565 C   0  0  0  0  0  2  0  0  0  0  0  0
  1  2  1  0
  2  3  1  0
  2  4  1  0
  4  5  1  0
  5  6  1  0
  6  7  1  0
  7  8  1  6
  7  9  1  0
  9 10  1  0
 10 11  2  3
 11 12  1  0
 12 13  1  0
 13 14  1  0
 14 15  1  0
 15 16  1  0
 16 17  1  6
 17 18  1  0
 18 19  1  0
 19 20  1  0
 20 21  2  3
 21 22  1  0
 22 23  1  0
 23 24  1  0
 24 25  1  0
 16  2  1  0
 22  9  1  0
 19 15  1  0
M  RAD  7   8   3  12   2  13   2  17   2  18   2  22   2  25   3
M  END
$$$$
