
     RDKit          3D

 28 33  0  0  0  0  0  0  0  0999 V2000
   -2.7121   -0.5157    1.1485 C   0  0  0  0  0  0  0  0  0  0  0  0
   -3.2902   -1.7210    1.5421 O   0  0  0  0  0  0  0  0  0  0  0  0
   -2.9705   -2.9681    0.9886 C   0  0  0  0  0  0  0  0  0  0  0  0
   -2.5290   -3.1670   -0.2629 C   0  0  0  0  0  0  0  0  0  0  0  0
   -2.3106   -2.0920   -1.2574 C   0  0  0  0  0  0  0  0  0  0  0  0
   -1.8866   -0.8368   -1.0560 C   0  0  0  0  0  0  0  0  0  0  0  0
   -1.9098   -0.3656   -2.4464 C   0  0  0  0  0  0  0  0  0  0  0  0
   -1.9140    0.9141   -2.7919 C   0  0  0  0  0  0  0  0  0  0  0  0
   -1.2625    1.9998   -2.0552 C   0  0  0  0  0  0  0  0  0  0  0  0
   -1.0345    2.0110   -0.7500 C   0  0  0  0  0  0  0  0  0  0  0  0
   -0.2425    3.1802   -0.4667 N   0  0  0  0  0  0  0  0  0  0  0  0
    0.7174    3.2163    0.6272 C   0  0  0  0  0  0  0  0  0  0  0  0
    2.1269    3.3293    0.0915 C   0  0  0  0  0  0  0  0  0  0  0  0
    2.9132    2.0958    0.4849 C   0  0  0  0  0  0  0  0  0  0  0  0
    2.6117    1.0125   -0.4811 C   0  0  0  0  0  0  0  0  0  0  0  0
    1.2936    0.3762   -0.2906 C   0  0  0  0  0  0  0  0  0  0  0  0
    0.9199   -0.7355    0.2987 C   0  0  0  0  0  0  0  0  0  0  0  0
    1.8154   -1.9403    0.4633 C   0  0  0  0  0  0  0  0  0  0  0  0
    2.3391   -2.0359    1.7979 N   0  0  0  0  0  0  0  0  0  0  0  0
    3.1388   -1.4679    1.0092 C   0  0  0  0  0  0  0  0  0  0  0  0
    3.7109    0.0984   -0.8192 C   0  0  0  0  0  0  0  0  0  0  0  0
    4.2102   -0.7859    0.2645 C   0  0  0  0  0  0  0  0  0  0  0  0
    5.1547   -1.8099   -0.3389 C   0  0  0  0  0  0  0  0  0  0  0  0
   -1.3836    1.1688    0.3547 C   0  0  0  0  0  0  0  0  0  0  0  0
   -2.4248    1.6844    1.2591 C   0  0  0  0  0  0  0  0  0  0  0  0
   -3.1541    0.6343    1.5706 C   0  0  0  0  0  0  0  0  0  0  0  0
   -1.5416   -0.2594    0.2241 C   0  0  0  0  0  0  0  0  0  0  0  0
   -0.3856   -1.0202    0.8920 C   0  0  0  0  0  0  0  0  0  0  0  0
  1  2  1  0
  2  3  1  0
  3  4  2  0
  4  5  1  0
  5  6  2  0
  6  7  1  0
  7  8  2  0
  8  9  1  0
  9 10  2  0
 10 11  1  0
 11 12  1  0
 12 13  1  0
 13 14  1  0
 14 15  1  0
 15 16  1  0
 16 17  2  0
 17 18  1  0
 18 19  1  0
 19 20  2  0
 15 21  1  0
 21 22  1  0
 22 23  1  0
 10 24  1  0
 24 25  1  0
 25 26  2  0
  6 27  1  0
 27 28  1  0
  1 26  2  0
 27  1  1  0
 28 17  1  0
 20 18  1  0
 22 20  1  0
 27 24  1  0
M  END
$$$$
