
     RDKit          2D

 55 61  0  0  0  0  0  0  0  0999 V2000
   -7.1927    3.0222    0.0000 C   0  0  0  0  0  0  0  0  0  0  0  0
   -6.6020    1.6434    0.0000 C   0  0  0  0  0  0  0  0  0  0  0  0
   -5.4010    0.7447    0.0000 C   0  0  0  0  0  0  0  0  0  0  0  0
   -5.9583   -0.6480    0.0000 O   0  0  0  0  0  0  0  0  0  0  0  0
   -3.9116    0.5669    0.0000 N   0  0  0  0  0  0  0  0  0  0  0  0
    0.7500   -1.2990    0.0000 C   0  0  0  0  0  0  0  0  0  0  0  0
    1.5000    0.0000    0.0000 C   0  0  0  0  0  0  0  0  0  0  0  0
    0.7500    1.2990    0.0000 C   0  0  0  0  0  0  0  0  0  0  0  0
   -0.7500    1.2990    0.0000 C   0  0  0  0  0  0  0  0  0  0  0  0
   -1.5000    0.0000    0.0000 C   0  0  0  0  0  0  0  0  0  0  0  0
   -0.7500   -1.2990    0.0000 C   0  0  0  0  0  0  0  0  0  0  0  0
   -1.6165   -0.4297    0.0000 N   0  0  0  0  0  0  0  0  0  0  0  0
   -1.7117    0.9889    0.0000 C   0  0  0  0  0  0  0  0  0  0  0  0
   -3.0211    1.5428    0.0000 N   0  0  0  0  0  0  0  0  0  0  0  0
   -3.5593    2.6460    0.0000 C   0  0  0  0  0  0  0  0  0  0  0  0
   -2.4737    3.6811    0.0000 N   0  0  0  0  0  0  0  0  0  0  0  0
   -1.0008    3.9650    0.0000 C   0  0  0  0  0  0  0  0  0  0  0  0
   -0.9009    5.4617    0.0000 C   0  0  0  0  0  0  0  0  0  0  0  0
    0.5534    5.8292    0.0000 C   0  0  0  0  0  0  0  0  0  0  0  0
    1.3523    4.5596    0.0000 N   0  0  0  0  0  0  0  0  0  0  0  0
   -5.4206    5.2830    0.0000 N   0  0  0  0  0  0  0  0  0  0  0  0
   -6.7450    5.9871    0.0000 C   0  0  0  0  0  0  0  0  0  0  0  0
   -5.6594    7.0223    0.0000 C   0  0  0  0  0  0  0  0  0  0  0  0
   -4.1727    7.2216    0.0000 N   0  0  0  0  0  0  0  0  0  0  0  0
   -3.9029    8.6971    0.0000 C   0  0  0  0  0  0  0  0  0  0  0  0
   -2.4901    9.2012    0.0000 C   0  0  0  0  0  0  0  0  0  0  0  0
   -2.2203   10.6767    0.0000 O   0  0  0  0  0  0  0  0  0  0  0  0
   -0.8075   11.1808    0.0000 C   0  0  0  0  0  0  0  0  0  0  0  0
   -0.5377   12.6563    0.0000 C   0  0  0  0  0  0  0  0  0  0  0  0
    0.8751   13.1604    0.0000 C   0  0  0  0  0  0  0  0  0  0  0  0
    1.1449   14.6359    0.0000 C   0  0  0  0  0  0  0  0  0  0  0  0
    2.5577   15.1400    0.0000 C   0  0  0  0  0  0  0  0  0  0  0  0
    2.8276   16.6155    0.0000 C   0  0  0  0  0  0  0  0  0  0  0  0
    4.2403   17.1196    0.0000 C   0  0  0  0  0  0  0  0  0  0  0  0
    4.5102   18.5951    0.0000 C   0  0  0  0  0  0  0  0  0  0  0  0
    5.9229   19.0992    0.0000 C   0  0  0  0  0  0  0  0  0  0  0  0
    6.1928   20.5747    0.0000 C   0  0  0  0  0  0  0  0  0  0  0  0
    5.0499   21.5462    0.0000 O   0  0  0  0  0  0  0  0  0  0  0  0
    7.6055   21.0788    0.0000 C   0  0  0  0  0  0  0  0  0  0  0  0
    7.8754   22.5543    0.0000 C   0  0  0  0  0  0  0  0  0  0  0  0
    9.2882   23.0584    0.0000 C   0  0  0  0  0  0  0  0  0  0  0  0
    9.5580   24.5339    0.0000 C   0  0  0  0  0  0  0  0  0  0  0  0
   10.9708   25.0380    0.0000 C   0  0  0  0  0  0  0  0  0  0  0  0
   11.2406   26.5135    0.0000 C   0  0  0  0  0  2  0  0  0  0  0  0
   12.1137   24.0666    0.0000 N   0  0  0  0  0  0  0  0  0  0  0  0
   13.5265   24.5706    0.0000 C   0  0  0  0  0  0  0  0  0  0  0  0
   14.6694   23.5992    0.0000 C   0  0  0  0  0  0  0  0  0  0  0  0
   14.3995   22.1236    0.0000 N   0  0  0  0  0  0  0  0  0  0  0  0
   16.0821   24.1033    0.0000 C   0  0  0  0  0  3  0  0  0  0  0  0
   -2.8528    6.5090    0.0000 C   0  0  0  0  0  0  0  0  0  0  0  0
   -2.2038    5.1567    0.0000 C   0  0  0  0  0  0  0  0  0  0  0  0
    0.3918    3.4075    0.0000 C   0  0  0  0  0  0  0  0  0  0  0  0
   -5.0459    2.4467    0.0000 C   0  0  0  0  0  0  0  0  0  0  0  0
   -6.3659    3.1593    0.0000 C   0  0  0  0  0  0  0  0  0  0  0  0
   -7.0149    4.5116    0.0000 C   0  0  0  0  0  0  0  0  0  0  0  0
  1  2  2  3
  2  3  1  0
  3  4  2  0
  3  5  1  0
  5  6  1  0
  6  7  2  0
  7  8  1  0
  8  9  2  0
  9 10  1  0
 10 11  2  0
 11 12  1  0
 12 13  1  0
 13 14  2  3
 14 15  1  0
 15 16  1  0
 16 17  1  0
 17 18  2  0
 18 19  1  0
 19 20  1  0
 20 21  1  0
 21 22  1  0
 22 23  1  0
 23 24  1  0
 24 25  1  0
 25 26  1  0
 26 27  1  0
 27 28  1  0
 28 29  1  0
 29 30  1  0
 30 31  1  0
 31 32  1  0
 32 33  1  0
 33 34  1  0
 34 35  1  0
 35 36  1  0
 36 37  1  0
 37 38  2  0
 37 39  1  0
 39 40  1  0
 40 41  1  0
 41 42  1  0
 42 43  1  0
 43 44  1  1
 43 45  1  0
 45 46  1  0
 46 47  1  0
 47 48  1  0
 47 49  2  0
 24 50  1  0
 50 51  1  0
 20 52  1  0
 15 53  1  0
 53 54  1  0
 54 55  1  0
 55  1  1  6
 11  6  1  0
 52  8  1  0
 51 16  1  0
 52 17  1  0
 53 18  1  0
 55 22  1  0
M  RAD  2  44   3  49   2
M  END
$$$$
