
     RDKit          3D

 23 25  0  0  0  0  0  0  0  0999 V2000
   -3.1776   -2.2587    0.7785 C   0  0  0  0  0  0  0  0  0  0  0  0
   -2.0699   -1.6929   -0.0491 C   0  0  1  0  0  0  0  0  0  0  0  0
   -2.5540   -0.8355   -1.1849 C   0  0  0  0  0  0  0  0  0  0  0  0
   -2.4394    0.6081   -1.0565 C   0  0  2  0  0  0  0  0  0  0  0  0
   -2.0881    1.1808   -2.2802 O   0  0  0  0  0  0  0  0  0  0  0  0
   -1.6943    1.2256    0.0349 C   0  0  2  0  0  0  0  0  0  0  0  0
   -0.4817    1.6506   -0.0525 O   0  0  0  0  0  0  0  0  0  0  0  0
   -1.7542    0.2973    1.2622 C   0  0  1  0  0  0  0  0  0  0  0  0
   -3.0939    0.0528    1.5257 O   0  0  0  0  0  0  0  0  0  0  0  0
   -1.0691   -0.9051    0.6416 C   0  0  1  0  0  0  0  0  0  0  0  0
   -0.0725   -1.5039    1.4389 N   0  0  0  0  0  0  0  0  0  0  0  0
    1.0622   -0.6807    1.0401 C   0  0  1  0  0  0  0  0  0  0  0  0
    1.5746    0.2181    2.0944 C   0  0  0  0  0  0  0  0  0  0  0  0
    1.4448    1.6296    1.4912 C   0  0  0  0  0  3  0  0  0  0  0  0
    2.4214    2.3962    2.1456 O   0  0  0  0  0  0  0  0  0  0  0  0
    1.7458    1.6152    0.0809 N   0  0  0  0  0  0  0  0  0  0  0  0
    0.5619    1.3502   -0.7358 C   0  0  1  0  0  0  0  0  0  0  0  0
    0.7693    0.0321   -1.3789 C   0  0  1  0  0  0  0  0  0  0  0  0
    0.7993    0.1749   -2.7894 O   0  0  0  0  0  0  0  0  0  0  0  0
    2.1367   -0.5808   -1.0776 C   0  0  2  0  0  0  0  0  0  0  0  0
    2.5718   -1.3748   -2.1315 O   0  0  0  0  0  0  0  0  0  0  0  0
    2.0750   -1.3957    0.2248 C   0  0  1  0  0  0  0  0  0  0  0  0
    3.3318   -1.2034    0.8441 O   0  0  0  0  0  0  0  0  0  0  0  0
  2  1  1  1
  2  3  1  0
  3  4  1  0
  4  5  1  6
  4  6  1  0
  6  7  1  6
  6  8  1  0
  8  9  1  6
  8 10  1  0
 10 11  1  1
 11 12  1  0
 12 13  1  1
 13 14  1  0
 14 15  1  0
 14 16  1  0
 17 16  1  1
 17 18  1  0
 18 19  1  6
 18 20  1  0
 20 21  1  6
 20 22  1  0
 22 23  1  1
 10  2  1  0
 17  7  1  0
 22 12  1  0
M  RAD  1  14   2
M  END
$$$$
