
     RDKit          3D

 33 34  0  0  0  0  0  0  0  0999 V2000
   -5.6757   -4.5993   -0.7421 C   0  0  0  0  0  0  0  0  0  0  0  0
   -5.6854   -3.3566   -0.0177 O   0  0  0  0  0  0  0  0  0  0  0  0
   -4.5002   -2.6414    0.0568 C   0  0  0  0  0  0  0  0  0  0  0  0
   -3.5668   -3.2185   -0.6501 O   0  0  0  0  0  0  0  0  0  0  0  0
   -4.3706   -1.4682    0.8154 C   0  0  0  0  0  0  0  0  0  0  0  0
   -3.2848   -0.8336    0.9721 C   0  0  0  0  0  0  0  0  0  0  0  0
   -1.9692   -1.2330    0.3706 N   0  0  0  0  0  0  0  0  0  0  0  0
   -1.6053   -2.5700    0.5519 C   0  0  0  0  0  0  0  0  0  0  0  0
   -1.4098   -0.1642   -0.2229 O   0  0  0  0  0  0  0  0  0  0  0  0
   -0.1403   -0.1126    0.5539 C   0  0  0  0  0  0  0  0  0  0  0  0
   -0.1940    1.4032    1.0270 C   0  0  0  0  0  0  0  0  0  0  0  0
   -1.2469    2.1418    0.4159 C   0  0  0  0  0  0  0  0  0  0  0  0
   -1.8400    1.8567   -0.6090 O   0  0  0  0  0  0  0  0  0  0  0  0
   -1.7399    3.4241    1.0924 C   0  0  0  0  0  3  0  0  0  0  0  0
   -2.4806    4.3249    0.2787 C   0  0  0  0  0  0  0  0  0  0  0  0
   -1.8176    5.3620   -0.5317 C   0  0  0  0  0  0  0  0  0  0  0  0
   -0.5746    5.9818   -0.0735 C   0  0  0  0  0  0  0  0  0  0  0  0
    0.6573    5.3490   -0.7316 C   0  0  0  0  0  0  0  0  0  0  0  0
    0.7122    4.0809   -0.7810 C   0  0  0  0  0  0  0  0  0  0  0  0
    1.8132    3.2359   -1.3735 C   0  0  0  0  0  0  0  0  0  0  0  0
    1.9230    2.1165   -0.7402 C   0  0  0  0  0  0  0  0  0  0  0  0
    1.7486    1.1541    0.0824 N   0  0  0  0  0  0  0  0  0  0  0  0
    2.2565    0.8929    1.7441 S   0  0  0  0  0  0  0  0  0  0  0  0
    0.9403   -0.0268   -0.4517 N   0  0  0  0  0  0  0  0  0  0  0  0
    1.8204   -1.1340   -0.3841 C   0  0  1  0  0  0  0  0  0  0  0  0
    1.2067   -2.4041   -0.7660 C   0  0  0  0  0  0  0  0  0  0  0  0
    1.3817   -3.3850   -0.0039 O   0  0  0  0  0  0  0  0  0  0  0  0
    3.0485   -0.8348   -1.2757 C   0  0  0  0  0  3  0  0  0  0  0  0
    4.0830   -1.9177   -1.0595 C   0  0  0  0  0  0  0  0  0  0  0  0
    3.6933   -3.1415   -0.3658 N   0  0  0  0  0  0  0  0  0  0  0  0
    4.5680   -2.1344    0.2951 C   0  0  1  0  0  0  0  0  0  0  0  0
    5.8825   -2.5198    0.6782 C   0  0  0  0  0  0  0  0  0  0  0  0
    6.3666   -3.6282    0.5815 O   0  0  0  0  0  0  0  0  0  0  0  0
  1  2  1  0
  2  3  1  0
  3  4  2  0
  3  5  1  0
  5  6  2  3
  6  7  1  0
  7  8  1  0
  7  9  1  0
  9 10  1  0
 10 11  1  0
 11 12  1  0
 12 13  2  0
 12 14  1  0
 14 15  1  0
 15 16  1  0
 16 17  1  0
 17 18  1  0
 18 19  2  3
 19 20  1  0
 20 21  2  3
 21 22  1  0
 22 23  1  0
 10 24  1  0
 24 25  1  0
 25 26  1  0
 26 27  2  0
 25 28  1  6
 28 29  1  0
 29 30  1  0
 30 31  1  0
 31 32  1  6
 32 33  2  0
 24 22  1  0
 31 29  1  0
M  RAD  2  14   2  28   2
M  END
$$$$
