
     RDKit          2D

 87 87  0  0  0  0  0  0  0  0999 V2000
   12.6073    2.5981    0.0000 C   0  0  0  0  0  0  0  0  0  0  0  0
   11.8573    1.2990    0.0000 C   0  0  0  0  0  0  0  0  0  0  0  0
   12.6073    0.0000    0.0000 C   0  0  0  0  0  0  0  0  0  0  0  0
   10.3573    1.2990    0.0000 C   0  0  0  0  0  0  0  0  0  0  0  0
    9.6073    0.0000    0.0000 C   0  0  0  0  0  0  0  0  0  0  0  0
    8.1073    0.0000    0.0000 C   0  0  0  0  0  0  0  0  0  0  0  0
    7.3573   -1.2990    0.0000 C   0  0  0  0  0  0  0  0  0  0  0  0
    8.1073   -2.5981    0.0000 C   0  0  0  0  0  0  0  0  0  0  0  0
    5.8573   -1.2990    0.0000 C   0  0  0  0  0  3  0  0  0  0  0  0
    5.1073    0.0000    0.0000 C   0  0  0  0  0  0  0  0  0  0  0  0
    3.6073    0.0000    0.0000 C   0  0  0  0  0  0  0  0  0  0  0  0
    3.2954    1.4672    0.0000 C   0  0  0  0  0  0  0  0  0  0  0  0
    4.6658    2.0773    0.0000 C   0  0  0  0  0  0  0  0  0  0  0  0
    2.4138    2.6807    0.0000 C   0  0  0  0  0  0  0  0  0  0  0  0
    1.1147    3.4307    0.0000 C   0  0  0  0  0  0  0  0  0  0  0  0
    1.5782    4.8573    0.0000 N   0  0  0  0  0  0  0  0  0  0  0  0
   -0.3771    3.5875    0.0000 C   0  0  0  0  0  0  0  0  0  0  0  0
   -1.8037    3.1240    0.0000 C   0  0  0  0  0  0  0  0  0  0  0  0
   -2.9184    2.1203    0.0000 C   0  0  0  0  0  0  0  0  0  0  0  0
   -4.1319    3.0020    0.0000 C   0  0  0  0  0  0  0  0  0  0  0  0
   -3.5285    0.7500    0.0000 C   0  0  0  0  0  0  0  0  0  0  0  0
   -3.5285   -0.7500    0.0000 C   0  0  0  0  0  3  0  0  0  0  0  0
   -2.9184   -2.1203    0.0000 C   0  0  0  0  0  0  0  0  0  0  0  0
   -4.1319   -3.0020    0.0000 C   0  0  0  0  0  0  0  0  0  0  0  0
   -1.8037   -3.1240    0.0000 C   0  0  0  0  0  0  0  0  0  0  0  0
   -0.3771   -3.5875    0.0000 C   0  0  0  0  0  0  0  0  0  0  0  0
    1.1147   -3.4307    0.0000 C   0  0  0  0  0  0  0  0  0  0  0  0
    2.4138   -2.6807    0.0000 C   0  0  0  0  0  0  0  0  0  0  0  0
    3.2954   -1.4672    0.0000 C   0  0  0  0  0  0  0  0  0  0  0  0
    4.7726   -1.2067    0.0000 C   0  0  0  0  0  0  0  0  0  0  0  0
    4.0903   -2.7393    0.0000 C   0  0  0  0  0  0  0  0  0  0  0  0
    3.3861   -4.0637    0.0000 C   0  0  0  0  0  0  0  0  0  0  0  0
    4.1810   -5.3358    0.0000 C   0  0  0  0  0  0  0  0  0  0  0  0
    3.4768   -6.6602    0.0000 C   0  0  0  0  0  0  0  0  0  0  0  0
    4.2717   -7.9323    0.0000 C   0  0  0  0  0  0  0  0  0  0  0  0
    3.5674   -9.2567    0.0000 C   0  0  0  0  0  0  0  0  0  0  0  0
    5.7707   -7.8799    0.0000 C   0  0  0  0  0  0  0  0  0  0  0  0
    6.5656   -9.1520    0.0000 C   0  0  0  0  0  0  0  0  0  0  0  0
    8.0647   -9.0997    0.0000 C   0  0  0  0  0  0  0  0  0  0  0  0
    8.8596  -10.3717    0.0000 C   0  0  0  0  0  0  0  0  0  0  0  0
   10.3587  -10.3194    0.0000 C   0  0  0  0  0  0  0  0  0  0  0  0
    8.1554  -11.6961    0.0000 C   0  0  0  0  0  0  0  0  0  0  0  0
    9.4798  -12.4004    0.0000 C   0  0  0  0  0  0  0  0  0  0  0  0
    6.8310  -10.9919    0.0000 C   0  0  0  0  0  0  0  0  0  0  0  0
    7.4512  -13.0206    0.0000 C   0  0  0  0  0  0  0  0  0  0  0  0
    5.9521  -13.0729    0.0000 C   0  0  0  0  0  0  0  0  0  0  0  0
    5.2479  -14.3973    0.0000 C   0  0  0  0  0  3  0  0  0  0  0  0
    3.7488  -14.4497    0.0000 C   0  0  0  0  0  2  0  0  0  0  0  0
    3.0446  -15.7741    0.0000 C   0  0  0  0  0  0  0  0  0  0  0  0
    1.5455  -15.8265    0.0000 C   0  0  0  0  0  0  0  0  0  0  0  0
    0.8413  -17.1509    0.0000 C   0  0  0  0  0  0  0  0  0  0  0  0
    0.7506  -14.5544    0.0000 C   0  0  0  0  0  3  0  0  0  0  0  0
   -0.7485  -14.6067    0.0000 C   0  0  0  0  0  0  0  0  0  0  0  0
   -1.5433  -13.3347    0.0000 C   0  0  0  0  0  0  0  0  0  0  0  0
   -3.0424  -13.3870    0.0000 C   0  0  0  0  0  0  0  0  0  0  0  0
   -0.8391  -12.0102    0.0000 C   0  0  0  0  0  3  0  0  0  0  0  0
   -1.6340  -10.7382    0.0000 C   0  0  0  0  0  0  0  0  0  0  0  0
   -3.1331  -10.7905    0.0000 C   0  0  0  0  0  0  0  0  0  0  0  0
   -3.9280   -9.5184    0.0000 C   0  0  0  0  0  0  0  0  0  0  0  0
   -3.8373  -12.1149    0.0000 C   0  0  0  0  0  0  0  0  0  0  0  0
   -5.3364  -12.1673    0.0000 C   0  0  0  0  0  0  0  0  0  0  0  0
   -6.0406  -13.4917    0.0000 C   0  0  0  0  0  0  0  0  0  0  0  0
   -5.2457  -14.7638    0.0000 C   0  0  0  0  0  0  0  0  0  0  0  0
   -5.9499  -16.0882    0.0000 C   0  0  0  0  0  0  0  0  0  0  0  0
   -5.1551  -17.3603    0.0000 C   0  0  0  0  0  0  0  0  0  0  0  0
   -7.4490  -16.1406    0.0000 C   0  0  0  0  0  0  0  0  0  0  0  0
   -8.1532  -17.4650    0.0000 C   0  0  0  0  0  0  0  0  0  0  0  0
   -9.6523  -17.5173    0.0000 C   0  0  0  0  0  0  0  0  0  0  0  0
  -10.3565  -18.8417    0.0000 C   0  0  0  0  0  0  0  0  0  0  0  0
  -10.4472  -16.2453    0.0000 C   0  0  0  0  0  3  0  0  0  0  0  0
   -9.7430  -14.9208    0.0000 C   0  0  0  0  0  0  0  0  0  0  0  0
  -10.5379  -13.6488    0.0000 C   0  0  0  0  0  0  0  0  0  0  0  0
  -12.0370  -13.7011    0.0000 C   0  0  0  0  0  0  0  0  0  0  0  0
  -12.8318  -12.4290    0.0000 C   0  0  0  0  0  0  0  0  0  0  0  0
  -12.7412  -15.0255    0.0000 C   0  0  0  0  0  3  0  0  0  0  0  0
  -14.2402  -15.0779    0.0000 C   0  0  0  0  0  0  0  0  0  0  0  0
  -14.9445  -16.4023    0.0000 C   0  0  0  0  0  0  0  0  0  0  0  0
  -16.4435  -16.4547    0.0000 C   0  0  0  0  0  0  0  0  0  0  0  0
  -17.1477  -17.7791    0.0000 C   0  0  0  0  0  0  0  0  0  0  0  0
  -17.2384  -15.1826    0.0000 C   0  0  0  0  0  3  0  0  0  0  0  0
  -18.7375  -15.2349    0.0000 C   0  0  0  0  0  0  0  0  0  0  0  0
  -19.5324  -13.9629    0.0000 C   0  0  0  0  0  0  0  0  0  0  0  0
  -21.0315  -14.0152    0.0000 C   0  0  0  0  0  3  0  0  0  0  0  0
  -21.8263  -12.7431    0.0000 C   0  0  0  0  0  0  0  0  0  0  0  0
  -23.3254  -12.7955    0.0000 C   0  0  0  0  0  0  0  0  0  0  0  0
  -24.1203  -11.5234    0.0000 C   0  0  0  0  0  0  0  0  0  0  0  0
  -25.6194  -11.5758    0.0000 C   0  0  0  0  0  2  0  0  0  0  0  0
  1  2  1  0
  2  3  1  0
  2  4  1  0
  4  5  1  0
  5  6  1  0
  6  7  1  0
  7  8  1  1
  7  9  1  0
  9 10  1  0
 10 11  1  0
 11 12  1  0
 12 13  1  1
 12 14  1  0
 14 15  1  0
 15 16  1  0
 15 17  2  3
 17 18  1  0
 18 19  1  0
 19 20  1  0
 19 21  1  0
 21 22  1  0
 22 23  1  0
 23 24  1  0
 23 25  1  0
 25 26  1  0
 26 27  1  0
 27 28  1  0
 28 29  1  0
 29 30  1  0
 29 31  1  0
 31 32  1  0
 32 33  1  0
 33 34  1  0
 34 35  1  0
 35 36  1  0
 35 37  1  0
 37 38  1  0
 38 39  1  0
 39 40  1  0
 40 41  1  0
 40 42  1  0
 42 43  1  0
 42 44  1  0
 42 45  1  0
 45 46  1  0
 46 47  1  0
 47 48  1  0
 48 49  1  0
 49 50  1  0
 50 51  1  0
 50 52  1  0
 52 53  1  0
 53 54  1  0
 54 55  1  6
 54 56  1  0
 56 57  1  0
 57 58  1  0
 58 59  1  1
 58 60  1  0
 60 61  1  0
 61 62  1  0
 62 63  1  0
 63 64  1  0
 64 65  1  6
 64 66  1  0
 66 67  1  0
 67 68  1  0
 68 69  1  0
 68 70  1  0
 70 71  1  0
 71 72  1  0
 72 73  1  0
 73 74  1  1
 73 75  1  0
 75 76  1  0
 76 77  1  0
 77 78  1  0
 78 79  1  6
 78 80  1  0
 80 81  1  0
 81 82  1  0
 82 83  1  0
 83 84  1  0
 84 85  1  0
 85 86  1  0
 86 87  1  0
 29 11  1  0
M  RAD  8   9   2  22   2  47   2  48   3  52   2  56   2  70   2  75   2
M  RAD  3  80   2  83   2  87   3
M  END
$$$$
