
     RDKit          3D

 19 20  0  0  0  0  0  0  0  0999 V2000
    4.6190   -1.1224   -0.1020 C   0  0  0  0  0  0  0  0  0  0  0  0
    4.2183   -2.2208   -0.8852 O   0  0  0  0  0  0  0  0  0  0  0  0
    3.0592   -2.9166   -0.5622 C   0  0  0  0  0  0  0  0  0  0  0  0
    2.0198   -2.2023   -0.1674 C   0  0  0  0  0  0  0  0  0  0  0  0
    0.8022   -2.9526    0.1704 C   0  0  0  0  0  0  0  0  0  0  0  0
   -0.2629   -2.2809    0.5701 C   0  0  0  0  0  0  0  0  0  0  0  0
   -0.3176   -0.8114    0.7032 C   0  0  0  0  0  0  0  0  0  0  0  0
   -0.7796   -0.4177    2.0506 C   0  0  0  0  0  0  0  0  0  0  0  0
   -1.6334    0.5828    2.2364 N   0  0  0  0  0  0  0  0  0  0  0  0
   -2.0920    1.2772    1.0551 C   0  0  0  0  0  0  0  0  0  0  0  0
   -3.2725    1.9331    0.9488 C   0  0  0  0  0  0  0  0  0  0  0  0
   -3.5569    2.5529   -0.2843 C   0  0  0  0  0  0  0  0  0  0  0  0
   -2.6387    2.4665   -1.3105 C   0  0  0  0  0  0  0  0  0  0  0  0
   -1.4619    1.8000   -1.1720 C   0  0  0  0  0  0  0  0  0  0  0  0
   -1.2297    1.2210    0.0274 C   0  0  0  0  0  0  0  0  0  0  0  0
    0.9337   -0.1472    0.3477 C   0  0  0  0  0  0  0  0  0  0  0  0
    1.2512    0.5556   -0.6633 C   0  0  0  0  0  0  0  0  0  0  0  0
    0.7500    1.0608   -1.8505 C   0  0  0  0  0  0  0  0  0  0  0  0
   -0.4083    1.6219   -2.1834 C   0  0  0  0  0  0  0  0  0  0  0  0
  1  2  1  0
  2  3  1  0
  3  4  2  3
  4  5  1  0
  5  6  2  3
  6  7  1  0
  7  8  1  0
  8  9  2  3
  9 10  1  0
 10 11  1  0
 11 12  2  0
 12 13  1  0
 13 14  2  0
 14 15  1  0
  7 16  1  0
 16 17  2  3
 17 18  1  0
 18 19  2  3
 15 10  2  0
 19 14  1  0
M  END
$$$$
