
     RDKit          3D

 42 43  0  0  0  0  0  0  0  0999 V2000
   -6.1441    1.3431   -2.9168 C   0  0  0  0  0  0  0  0  0  0  0  0
   -4.8818    1.0018   -2.4235 O   0  0  0  0  0  0  0  0  0  0  0  0
   -4.5344    1.8401   -1.3693 C   0  0  0  0  0  3  0  0  0  0  0  0
   -5.2915    1.6001   -0.2236 O   0  0  0  0  0  0  0  0  0  0  0  0
   -5.0453    0.2982    0.1702 C   0  0  2  0  0  0  0  0  0  0  0  0
   -5.8218   -0.0768    1.4168 C   0  0  0  0  0  0  0  0  0  0  0  0
   -5.4613    0.8158    2.5853 C   0  0  0  0  0  2  0  0  0  0  0  0
   -3.5860    0.1479    0.4843 C   0  0  1  0  0  0  0  0  0  0  0  0
   -2.7022    0.4549   -0.7049 C   0  0  0  0  0  3  0  0  0  0  0  0
   -1.2733    0.1935   -0.2734 C   0  0  0  0  0  3  0  0  0  0  0  0
   -0.8849   -1.2600   -0.4386 C   0  0  0  0  0  0  0  0  0  0  0  0
    0.4006   -1.4116    0.0079 O   0  0  0  0  0  0  0  0  0  0  0  0
   -1.1134   -1.6436   -1.8602 C   0  0  0  0  0  0  0  0  0  0  0  0
   -2.5846   -1.4414   -2.1747 C   0  0  0  0  0  0  0  0  0  0  0  0
   -1.6990   -2.0995    0.3560 O   0  0  0  0  0  0  0  0  0  0  0  0
   -1.3013   -3.3287    0.1048 O   0  0  0  0  0  0  0  0  0  0  0  0
   -0.4770   -3.8522    1.0719 C   0  0  0  0  0  3  0  0  0  0  0  0
    0.6715   -3.1317    1.3029 O   0  0  0  0  0  0  0  0  0  0  0  0
    1.7929   -3.6710    0.6788 C   0  0  0  0  0  3  0  0  0  0  0  0
    2.4435   -2.5353   -0.1223 C   0  0  2  0  0  0  0  0  0  0  0  0
    2.8130   -1.5712    0.8306 O   0  0  0  0  0  0  0  0  0  0  0  0
    1.2912   -1.8975   -0.9119 C   0  0  1  0  0  0  0  0  0  0  0  0
    0.7980   -2.8721   -1.7454 O   0  0  0  0  0  0  0  0  0  0  0  0
    1.8547   -3.2390   -2.6103 C   0  0  0  0  0  3  0  0  0  0  0  0
    2.0490   -4.6059   -2.5896 O   0  0  0  0  0  0  0  0  0  0  0  0
   -3.1696    0.9549    1.6924 C   0  0  0  0  0  3  0  0  0  0  0  0
   -2.7312    2.2223    1.2448 O   0  0  0  0  0  0  0  0  0  0  0  0
   -1.9695    2.7448    2.2986 C   0  0  0  0  0  0  0  0  0  0  0  0
   -1.4351    3.9923    1.9610 O   0  0  0  0  0  0  0  0  0  0  0  0
   -0.1694    4.1134    2.5336 C   0  0  0  0  0  3  0  0  0  0  0  0
    0.7351    3.5300    1.6474 O   0  0  0  0  0  0  0  0  0  0  0  0
    1.7249    2.8035    2.3149 C   0  0  0  0  0  3  0  0  0  0  0  0
    1.8619    1.5379    1.7154 O   0  0  0  0  0  0  0  0  0  0  0  0
    2.9641    1.5407    0.8766 C   0  0  0  0  0  3  0  0  0  0  0  0
    2.9105    0.5435   -0.0923 O   0  0  0  0  0  0  0  0  0  0  0  0
    3.6204   -0.5883    0.2775 C   0  0  2  0  0  0  0  0  0  0  0  0
    4.2824   -1.1546   -0.8116 O   0  0  0  0  0  0  0  0  0  0  0  0
    5.0915   -0.1673   -1.3646 C   0  0  0  0  0  3  0  0  0  0  0  0
    5.2872    0.8990   -0.5119 O   0  0  0  0  0  0  0  0  0  0  0  0
    5.5681    2.0362   -1.2643 C   0  0  0  0  0  3  0  0  0  0  0  0
    6.9167    2.5746   -1.0181 C   0  0  0  0  0  0  0  0  0  0  0  0
    7.1993    3.3592   -0.1445 O   0  0  0  0  0  0  0  0  0  0  0  0
  1  2  1  0
  2  3  1  0
  3  4  1  0
  4  5  1  0
  5  6  1  1
  6  7  1  0
  5  8  1  0
  8  9  1  6
  9 10  1  0
 10 11  1  0
 11 12  1  0
 11 13  1  0
 13 14  1  0
 11 15  1  0
 15 16  1  0
 16 17  1  0
 17 18  1  0
 18 19  1  0
 20 19  1  1
 20 21  1  0
 20 22  1  0
 22 23  1  6
 23 24  1  0
 24 25  1  0
  8 26  1  0
 26 27  1  0
 27 28  1  0
 28 29  1  0
 29 30  1  0
 30 31  1  0
 31 32  1  0
 32 33  1  0
 33 34  1  0
 34 35  1  0
 35 36  1  0
 36 37  1  6
 37 38  1  0
 38 39  1  0
 39 40  1  0
 40 41  1  0
 41 42  2  0
 22 12  1  0
 36 21  1  0
M  RAD  8   3   2   7   3   9   2  10   2  17   2  19   2  24   2  26   2
M  RAD  5  30   2  32   2  34   2  38   2  40   2
M  END
$$$$
