
     RDKit          3D

  8  7  0  0  0  0  0  0  0  0999 V2000
    2.9796    0.5275    0.7126 C   0  0  0  0  0  0  0  0  0  0  0  0
    2.4929    0.1004   -0.4349 C   0  0  0  0  0  0  0  0  0  0  0  0
    1.1241   -0.2604   -0.6724 C   0  0  0  0  0  0  0  0  0  0  0  0
    0.1768   -0.2250    0.1773 N   0  0  0  0  0  0  0  0  0  0  0  0
   -1.1456   -0.6354   -0.2723 C   0  0  2  0  0  0  0  0  0  0  0  0
   -2.0429    0.4567   -0.3966 N   0  0  0  0  0  0  0  0  0  0  0  0
   -1.8664    1.5968    0.1763 C   0  0  0  0  0  0  0  0  0  0  0  0
   -1.7184   -1.5605    0.7100 N   0  0  0  0  0  0  0  0  0  0  0  0
  1  2  2  0
  2  3  1  0
  3  4  2  3
  4  5  1  0
  5  6  1  0
  6  7  2  0
  5  8  1  1
M  END
$$$$
