
     RDKit          3D

 13 14  0  0  0  0  0  0  0  0999 V2000
    2.8442    1.3645   -0.5360 O   0  0  0  0  0  0  0  0  0  0  0  0
    2.3091    0.2510   -1.0050 O   0  0  0  0  0  0  0  0  0  0  0  0
    2.1070   -0.6531    0.0278 C   0  0  1  0  0  0  0  0  0  0  0  0
    1.5436    0.0016    1.1095 O   0  0  0  0  0  0  0  0  0  0  0  0
    0.6201    0.9478    0.6661 C   0  0  0  0  0  0  0  0  0  0  0  0
   -0.7528    0.3705    0.9761 C   0  0  2  0  0  0  0  0  0  0  0  0
   -0.7484   -1.1000    0.5699 C   0  0  1  0  0  0  0  0  0  0  0  0
   -2.2068   -1.4101    0.3166 C   0  0  0  0  0  3  0  0  0  0  0  0
   -2.9342   -0.0877    0.2753 C   0  0  0  0  0  0  0  0  0  0  0  0
   -1.8088    0.9099    0.0331 C   0  0  1  0  0  0  0  0  0  0  0  0
   -2.2904    2.2744    0.4307 C   0  0  0  0  0  0  0  0  0  0  0  0
    0.0123   -1.1940   -0.7339 C   0  0  0  0  0  0  0  0  0  0  0  0
    1.3051   -1.6746   -0.4735 O   0  0  0  0  0  0  0  0  0  0  0  0
  1  2  1  0
  3  2  1  6
  3  4  1  0
  4  5  1  0
  6  5  1  6
  6  7  1  0
  7  8  1  6
  8  9  1  0
  9 10  1  0
 10 11  1  1
  7 12  1  0
 12 13  1  0
 13  3  1  0
 10  6  1  0
M  RAD  1   8   2
M  END
$$$$
