
     RDKit          3D

  5  5  0  0  0  0  0  0  0  0999 V2000
   -0.5340   -1.0068   -0.0411 C   0  0  0  0  0  0  0  0  0  0  0  0
   -1.4642    0.1908    0.1380 C   0  0  0  0  0  0  0  0  0  0  0  0
   -0.3159    0.9592   -0.5192 C   0  0  0  0  0  0  0  0  0  0  0  0
    0.5885   -0.0602    0.0362 C   0  0  0  0  0  0  0  0  0  0  0  0
    1.7256   -0.0830    0.3861 O   0  0  0  0  0  0  0  0  0  0  0  0
  1  2  1  0
  2  3  1  0
  3  4  1  0
  4  5  2  0
  4  1  1  0
M  END
$$$$
