
     RDKit          2D

 20 21  0  0  0  0  0  0  0  0999 V2000
   -3.0000   -2.5981    0.0000 C   0  0  0  0  0  0  0  0  0  0  0  0
   -1.5000   -2.5981    0.0000 O   0  0  0  0  0  0  0  0  0  0  0  0
   -0.7500   -1.2990    0.0000 C   0  0  0  0  0  0  0  0  0  0  0  0
    0.7500   -1.2990    0.0000 C   0  0  0  0  0  0  0  0  0  0  0  0
    1.5000    0.0000    0.0000 C   0  0  0  0  0  0  0  0  0  0  0  0
    0.7500    1.2990    0.0000 C   0  0  0  0  0  0  0  0  0  0  0  0
   -0.7500    1.2990    0.0000 C   0  0  0  0  0  0  0  0  0  0  0  0
   -1.5000    0.0000    0.0000 C   0  0  0  0  0  0  0  0  0  0  0  0
   -0.0000   -0.0000    0.0000 C   0  0  0  0  0  0  0  0  0  0  0  0
    1.4095    0.5130    0.0000 C   0  0  0  0  0  0  0  0  0  0  0  0
    2.5586   -0.4512    0.0000 O   0  0  0  0  0  0  0  0  0  0  0  0
   -0.2605    1.4772    0.0000 N   0  0  0  0  0  0  0  0  0  0  0  0
   -1.6700    1.9902    0.0000 C   0  0  0  0  0  0  0  0  0  0  0  0
   -1.9305    3.4675    0.0000 C   0  0  0  0  0  0  0  0  0  0  0  0
   -3.3400    3.9805    0.0000 C   0  0  0  0  0  0  0  0  0  0  0  0
   -0.7814    4.4316    0.0000 C   0  0  0  0  0  0  0  0  0  0  0  0
    0.6281    3.9186    0.0000 C   0  0  0  0  0  0  0  0  0  0  0  0
    1.7772    4.8828    0.0000 C   0  0  0  0  0  0  0  0  0  0  0  0
    3.1867    4.3698    0.0000 C   0  0  0  0  0  0  0  0  0  0  0  0
   -1.0419    5.9088    0.0000 C   0  0  0  0  0  0  0  0  0  0  0  0
  1  2  1  0
  2  3  1  0
  3  4  2  0
  4  5  1  0
  5  6  2  0
  6  7  1  0
  7  8  2  0
  8  9  1  0
  9 10  1  0
 10 11  2  0
  9 12  1  0
 12 13  1  0
 13 14  1  0
 14 15  1  0
 14 16  1  0
 16 17  1  0
 17 18  2  3
 18 19  1  0
 16 20  1  0
  8  3  1  0
  9  4  1  0
M  END
$$$$
