
     RDKit          2D

 93 95  0  0  0  0  0  0  0  0999 V2000
   12.9430   26.8533    0.0000 C   0  0  0  0  0  0  0  0  0  0  0  0
   11.7295   27.7350    0.0000 O   0  0  0  0  0  0  0  0  0  0  0  0
   11.8863   29.2268    0.0000 C   0  0  0  0  0  0  0  0  0  0  0  0
   13.1853   29.9768    0.0000 O   0  0  0  0  0  0  0  0  0  0  0  0
   12.8734   31.4440    0.0000 C   0  0  0  0  0  0  0  0  0  0  0  0
   13.8771   32.5587    0.0000 C   0  0  0  0  0  0  0  0  0  0  0  0
   11.3817   31.6008    0.0000 C   0  0  0  0  0  3  0  0  0  0  0  0
   10.7715   30.2305    0.0000 C   0  0  0  0  0  0  0  0  0  0  0  0
    9.3043   29.9186    0.0000 O   0  0  0  0  0  0  0  0  0  0  0  0
    8.8408   28.4920    0.0000 C   0  0  0  0  0  3  0  0  0  0  0  0
    7.3736   28.1802    0.0000 C   0  0  0  0  0  0  0  0  0  0  0  0
    6.9101   26.7536    0.0000 C   0  0  0  0  0  0  0  0  0  0  0  0
    5.4835   27.2171    0.0000 C   0  0  0  0  0  0  0  0  0  0  0  0
    8.3366   26.2900    0.0000 C   0  0  0  0  0  0  0  0  0  0  0  0
    6.4465   25.3270    0.0000 C   0  0  0  0  0  0  0  0  0  0  0  0
    7.4502   24.2123    0.0000 C   0  0  0  0  0  3  0  0  0  0  0  0
    6.9867   22.7857    0.0000 O   0  0  0  0  0  0  0  0  0  0  0  0
    7.9904   21.6710    0.0000 O   0  0  0  0  0  0  0  0  0  0  0  0
    7.5269   20.2444    0.0000 C   0  0  0  0  0  0  0  0  0  0  0  0
    8.5306   19.1297    0.0000 C   0  0  0  0  0  0  0  0  0  0  0  0
    9.9978   19.4415    0.0000 C   0  0  0  0  0  3  0  0  0  0  0  0
   10.4613   20.8681    0.0000 O   0  0  0  0  0  0  0  0  0  0  0  0
   11.9285   21.1800    0.0000 C   0  0  0  0  0  0  0  0  0  0  0  0
   12.3921   22.6066    0.0000 O   0  0  0  0  0  0  0  0  0  0  0  0
   13.8593   22.9184    0.0000 C   0  0  0  0  0  3  0  0  0  0  0  0
   14.3228   24.3450    0.0000 C   0  0  0  0  0  3  0  0  0  0  0  0
   15.7900   24.6569    0.0000 O   0  0  0  0  0  0  0  0  0  0  0  0
   16.2536   26.0835    0.0000 C   0  0  0  0  0  3  0  0  0  0  0  0
   17.7208   26.3953    0.0000 O   0  0  0  0  0  0  0  0  0  0  0  0
   18.1843   27.8219    0.0000 C   0  0  0  0  0  0  0  0  0  0  0  0
   19.6515   28.1338    0.0000 C   0  0  0  0  0  0  0  0  0  0  0  0
   20.1150   29.5604    0.0000 C   0  0  0  0  0  0  0  0  0  0  0  0
   21.5823   29.8722    0.0000 C   0  0  0  0  0  0  0  0  0  0  0  0
   22.0458   31.2988    0.0000 C   0  0  0  0  0  0  0  0  0  0  0  0
   23.5130   31.6107    0.0000 C   0  0  0  0  0  3  0  0  0  0  0  0
   23.9765   33.0373    0.0000 C   0  0  0  0  0  0  0  0  0  0  0  0
   25.4438   33.3492    0.0000 O   0  0  0  0  0  0  0  0  0  0  0  0
    8.0670   17.7031    0.0000 C   0  0  0  0  0  0  0  0  0  0  0  0
    6.5998   17.3912    0.0000 C   0  0  0  0  0  0  0  0  0  0  0  0
    6.1363   15.9646    0.0000 C   0  0  0  0  0  0  0  0  0  0  0  0
    4.6691   15.6528    0.0000 O   0  0  0  0  0  0  0  0  0  0  0  0
    4.2055   14.2262    0.0000 C   0  0  0  0  0  0  0  0  0  0  0  0
    2.7383   13.9143    0.0000 C   0  0  0  0  0  0  0  0  0  0  0  0
    2.2748   12.4877    0.0000 C   0  0  0  0  0  0  0  0  0  0  0  0
    0.8076   12.1759    0.0000 C   0  0  0  0  0  0  0  0  0  0  0  0
    0.3441   10.7493    0.0000 O   0  0  0  0  0  0  0  0  0  0  0  0
   -1.1232   10.4374    0.0000 O   0  0  0  0  0  0  0  0  0  0  0  0
   -1.5867    9.0108    0.0000 C   0  0  0  0  0  3  0  0  0  0  0  0
   -3.0539    8.6990    0.0000 C   0  0  0  0  0  0  0  0  0  0  0  0
   -3.5174    7.2724    0.0000 C   0  0  0  0  0  3  0  0  0  0  0  0
   -4.9847    6.9605    0.0000 C   0  0  0  0  0  0  0  0  0  0  0  0
   -5.4482    5.5339    0.0000 C   0  0  0  0  0  0  0  0  0  0  0  0
   -4.4445    4.4192    0.0000 C   0  0  0  0  0  0  0  0  0  0  0  0
   -2.9773    4.7311    0.0000 N   0  0  0  0  0  0  0  0  0  0  0  0
   -1.9736    3.6163    0.0000 C   0  0  0  0  0  0  0  0  0  0  0  0
   -0.5064    3.9282    0.0000 C   0  0  0  0  0  3  0  0  0  0  0  0
    0.4973    2.8135    0.0000 C   0  0  0  0  0  0  0  0  0  0  0  0
    1.9646    3.1254    0.0000 C   0  0  0  0  0  0  0  0  0  0  0  0
    0.0338    1.3869    0.0000 C   0  0  0  0  0  0  0  0  0  0  0  0
    1.0375    0.2722    0.0000 O   0  0  0  0  0  0  0  0  0  0  0  0
    0.5740   -1.1544    0.0000 C   0  0  0  0  0  3  0  0  0  0  0  0
    1.5777   -2.2691    0.0000 C   0  0  0  0  0  0  0  0  0  0  0  0
   -6.9154    5.2220    0.0000 C   0  0  0  0  0  0  0  0  0  0  0  0
   -7.9191    6.3368    0.0000 C   0  0  0  0  0  0  0  0  0  0  0  0
   -7.3789    3.7955    0.0000 C   0  0  0  0  0  0  0  0  0  0  0  0
   -8.8462    3.4836    0.0000 N   0  0  0  0  0  0  0  0  0  0  0  0
   -9.4563    4.8539    0.0000 C   0  0  0  0  0  0  0  0  0  0  0  0
  -10.8828    5.3174    0.0000 C   0  0  0  0  0  0  0  0  0  0  0  0
  -11.9976    6.3211    0.0000 C   0  0  0  0  0  0  0  0  0  0  0  0
  -13.4893    6.1643    0.0000 C   0  0  0  0  0  3  0  0  0  0  0  0
  -14.7884    5.4143    0.0000 C   0  0  0  0  0  0  0  0  0  0  0  0
  -16.2802    5.5711    0.0000 N   0  0  0  0  0  0  0  0  0  0  0  0
  -15.6701    4.2008    0.0000 C   0  0  0  0  0  0  0  0  0  0  0  0
  -15.9819    2.7336    0.0000 O   0  0  0  0  0  0  0  0  0  0  0  0
  -15.6701    1.2664    0.0000 N   0  0  0  0  0  0  0  0  0  0  0  0
  -14.7884    0.0528    0.0000 C   0  0  0  0  0  3  0  0  0  0  0  0
  -13.4893   -0.6972    0.0000 C   0  0  0  0  0  0  0  0  0  0  0  0
  -11.9976   -0.8539    0.0000 C   0  0  0  0  0  0  0  0  0  0  0  0
  -10.5710   -0.3904    0.0000 C   0  0  0  0  0  0  0  0  0  0  0  0
   -9.4563    0.6133    0.0000 C   0  0  0  0  0  0  0  0  0  0  0  0
   -8.8462    1.9836    0.0000 C   0  0  0  0  0  0  0  0  0  0  0  0
   -7.3789    1.6717    0.0000 C   0  0  0  0  0  0  0  0  0  0  0  0
   -6.3752    2.7864    0.0000 C   0  0  0  0  0  0  0  0  0  0  0  0
   -4.9080    2.4746    0.0000 C   0  0  0  0  0  0  0  0  0  0  0  0
   -4.4445    1.0480    0.0000 C   0  0  0  0  0  0  0  0  0  0  0  0
   -2.9773    0.7361    0.0000 C   0  0  0  0  0  0  0  0  0  0  0  0
   -2.5137   -0.6905    0.0000 O   0  0  0  0  0  0  0  0  0  0  0  0
   -1.0465   -1.0023    0.0000 C   0  0  0  0  0  0  0  0  0  0  0  0
   -0.5830   -2.4289    0.0000 C   0  0  0  0  0  0  0  0  0  0  0  0
    0.8842   -2.7408    0.0000 C   0  0  0  0  0  0  0  0  0  0  0  0
    1.3477   -4.1674    0.0000 N   0  0  0  0  0  0  0  0  0  0  0  0
    2.8150   -4.4792    0.0000 C   0  0  0  0  0  0  0  0  0  0  0  0
    3.2785   -5.9058    0.0000 C   0  0  0  0  0  0  0  0  0  0  0  0
  1  2  1  0
  3  2  1  6
  3  4  1  0
  4  5  1  0
  5  6  1  1
  5  7  1  0
  7  8  1  0
  8  9  1  1
  9 10  1  0
 10 11  1  0
 11 12  1  0
 12 13  1  0
 12 14  1  0
 12 15  1  0
 15 16  1  0
 16 17  1  0
 17 18  1  0
 18 19  1  0
 20 19  1  6
 20 21  1  0
 21 22  1  0
 22 23  1  0
 23 24  1  0
 24 25  1  0
 25 26  1  0
 26 27  1  0
 27 28  1  0
 28 29  1  0
 29 30  1  0
 30 31  2  0
 31 32  1  0
 32 33  2  0
 33 34  1  0
 34 35  1  0
 35 36  1  0
 36 37  1  0
 20 38  1  0
 38 39  1  0
 39 40  2  3
 40 41  1  0
 41 42  1  0
 42 43  1  0
 43 44  2  0
 44 45  1  0
 45 46  1  0
 46 47  1  0
 47 48  1  0
 48 49  1  0
 49 50  1  0
 50 51  1  0
 52 51  1  1
 52 53  1  0
 53 54  2  0
 54 55  1  0
 55 56  1  0
 56 57  1  0
 57 58  1  6
 57 59  1  0
 59 60  1  0
 60 61  1  0
 61 62  1  0
 52 63  1  0
 63 64  1  1
 63 65  1  0
 65 66  1  0
 66 67  1  0
 67 68  2  0
 68 69  1  0
 69 70  1  0
 70 71  1  0
 71 72  1  0
 71 73  1  0
 73 74  1  0
 74 75  1  0
 75 76  1  0
 76 77  1  0
 77 78  2  3
 78 79  1  0
 79 80  1  0
 80 81  1  0
 81 82  1  0
 82 83  2  0
 83 84  1  0
 84 85  1  0
 85 86  1  0
 86 87  1  0
 87 88  1  0
 88 89  2  0
 89 90  1  0
 90 91  2  0
 91 92  1  0
 92 93  1  0
  8  3  1  0
 81 66  1  0
 73 72  1  0
M  RAD  8   7   2  10   2  16   2  21   2  25   2  26   2  28   2  35   2
M  RAD  6  48   2  50   2  56   2  61   2  70   2  76   2
M  END
$$$$
