
     RDKit          3D

 38 39  0  0  0  0  0  0  0  0999 V2000
   -8.6236    5.5229   -0.5269 C   0  0  0  0  0  0  0  0  0  0  0  0
   -9.0189    4.3417   -0.1872 C   0  0  0  0  0  0  0  0  0  0  0  0
   -7.7955    3.3285   -0.4140 C   0  0  0  0  0  0  0  0  0  0  0  0
   -8.4020    2.1106    0.0247 C   0  0  0  0  0  0  0  0  0  0  0  0
   -7.4474    1.0135   -0.0679 C   0  0  0  0  0  0  0  0  0  0  0  0
   -6.3316    0.9496   -0.3846 O   0  0  0  0  0  0  0  0  0  0  0  0
   -9.6722    2.1137    0.3885 C   0  0  0  0  0  0  0  0  0  0  0  0
  -10.2974    0.9580    0.7578 N   0  0  0  0  0  0  0  0  0  0  0  0
   -9.2511   -0.1386    0.6870 C   0  0  0  0  0  0  0  0  0  0  0  0
   -8.2174   -0.5533    0.4805 C   0  0  0  0  0  0  0  0  0  0  0  0
   -6.9050   -1.0035    0.2155 C   0  0  0  0  0  0  0  0  0  0  0  0
   -6.4980   -2.2107    0.1651 C   0  0  0  0  0  0  0  0  0  0  0  0
   -5.0342   -2.3674   -0.1304 C   0  0  0  0  0  0  0  0  0  0  0  0
   -4.6821   -0.9818   -0.3358 N   0  0  0  0  0  0  0  0  0  0  0  0
   -3.2313   -0.9015   -0.6453 C   0  0  0  0  0  0  0  0  0  0  0  0
   -2.9086   -1.2790    0.7308 O   0  0  0  0  0  0  0  0  0  0  0  0
   -2.0803   -2.0941    1.0092 C   0  0  0  0  0  0  0  0  0  0  0  0
   -2.0264   -3.3725    0.1839 C   0  0  0  0  0  0  0  0  0  0  0  0
   -0.9017   -3.4434   -0.4257 C   0  0  0  0  0  0  0  0  0  0  0  0
    0.0763   -2.2783   -0.0979 C   0  0  0  0  0  0  0  0  0  0  0  0
   -0.4696   -1.3361    0.6789 N   0  0  0  0  0  0  0  0  0  0  0  0
    0.4131   -0.2430    0.9198 O   0  0  0  0  0  0  0  0  0  0  0  0
    1.2441   -0.0592   -0.1383 C   0  0  0  0  0  0  0  0  0  0  0  0
    2.6716   -0.0230    0.3170 C   0  0  0  0  0  0  0  0  0  0  0  0
    3.1162   -1.1899   -0.5431 C   0  0  0  0  0  0  0  0  0  0  0  0
    4.5691   -1.3818   -0.3042 C   0  0  0  0  0  0  0  0  0  0  0  0
    5.0177   -0.5631    0.5837 N   0  0  0  0  0  0  0  0  0  0  0  0
    6.3589   -0.4857    0.8385 C   0  0  0  0  0  0  0  0  0  0  0  0
    6.9893   -0.7043   -0.5833 C   0  0  0  0  0  0  0  0  0  0  0  0
    8.0805   -0.2663   -1.1564 O   0  0  0  0  0  0  0  0  0  0  0  0
    8.0261   -1.6279   -0.6510 C   0  0  0  0  0  0  0  0  0  0  0  0
    9.2217   -1.9558    0.1847 C   0  0  0  0  0  0  0  0  0  0  0  0
    9.4673   -0.8165    1.1372 O   0  0  0  0  0  0  0  0  0  0  0  0
    9.6556    0.1408    0.1884 C   0  0  0  0  0  0  0  0  0  0  0  0
   10.0206    1.4156    0.3469 C   0  0  0  0  0  0  0  0  0  0  0  0
   11.1847    1.9797   -0.1034 C   0  0  0  0  0  0  0  0  0  0  0  0
   11.3495    3.3693    0.2743 C   0  0  0  0  0  0  0  0  0  0  0  0
   12.3320    4.0329   -0.1340 N   0  0  0  0  0  0  0  0  0  0  0  0
  1  2  2  0
  2  3  1  0
  3  4  2  3
  4  5  1  0
  5  6  2  0
  4  7  1  0
  7  8  2  0
  8  9  1  0
  9 10  2  0
 10 11  1  0
 11 12  2  3
 12 13  1  0
 13 14  2  3
 14 15  1  0
 15 16  1  0
 16 17  1  0
 17 18  1  0
 18 19  2  3
 19 20  1  0
 20 21  2  3
 21 22  1  0
 22 23  1  0
 23 24  1  0
 24 25  2  3
 25 26  1  0
 26 27  2  3
 27 28  1  0
 28 29  1  0
 29 30  1  0
 29 31  1  0
 31 32  1  0
 32 33  1  0
 33 34  1  0
 34 35  1  0
 35 36  2  3
 36 37  1  0
 37 38  2  0
 10  5  1  0
 31 30  1  0
M  END
$$$$
