
     RDKit          2D

 87 89  0  0  0  0  0  0  0  0999 V2000
  -17.2172   -1.6136    0.0000 C   0  0  0  0  0  0  0  0  0  0  0  0
  -16.5742   -2.9688    0.0000 C   0  0  0  0  0  0  0  0  0  0  0  0
  -17.4263   -4.2032    0.0000 C   0  0  0  0  0  0  0  0  0  0  0  0
  -15.0791   -3.0895    0.0000 C   0  0  0  0  0  0  0  0  0  0  0  0
  -14.4360   -4.4446    0.0000 C   0  0  0  0  0  0  0  0  0  0  0  0
  -12.9409   -4.5653    0.0000 C   0  0  0  0  0  0  0  0  0  0  0  0
  -12.2979   -5.9205    0.0000 C   0  0  0  0  0  0  0  0  0  0  0  0
  -13.1500   -7.1550    0.0000 C   0  0  0  0  0  0  0  0  0  0  0  0
  -10.8027   -6.0412    0.0000 C   0  0  0  0  0  3  0  0  0  0  0  0
   -9.9506   -4.8067    0.0000 C   0  0  0  0  0  0  0  0  0  0  0  0
   -8.4555   -4.9274    0.0000 C   0  0  0  0  0  0  0  0  0  0  0  0
   -7.6034   -3.6930    0.0000 C   0  0  0  0  0  0  0  0  0  0  0  0
   -8.4068   -2.4263    0.0000 C   0  0  0  0  0  0  0  0  0  0  0  0
   -6.1083   -3.8137    0.0000 C   0  0  0  0  0  3  0  0  0  0  0  0
   -5.2562   -2.5792    0.0000 C   0  0  0  0  0  0  0  0  0  0  0  0
   -6.2508   -1.4564    0.0000 C   0  0  0  0  0  0  0  0  0  0  0  0
   -7.6541   -1.9864    0.0000 C   0  0  0  0  0  0  0  0  0  0  0  0
   -6.6098    0.0000    0.0000 C   0  0  0  0  0  0  0  0  0  0  0  0
   -6.2508    1.4564    0.0000 C   0  0  0  0  0  0  0  0  0  0  0  0
   -5.2562    2.5792    0.0000 C   0  0  0  0  0  0  0  0  0  0  0  0
   -6.1083    3.8137    0.0000 C   0  0  0  0  0  0  0  0  0  0  0  0
   -3.8536    3.1111    0.0000 C   0  0  0  0  0  0  0  0  0  0  0  0
   -2.3646    2.9303    0.0000 C   0  0  0  0  0  0  0  0  0  0  0  0
   -1.1301    2.0782    0.0000 C   0  0  0  0  0  0  0  0  0  0  0  0
   -0.0073    3.0729    0.0000 C   0  0  0  0  0  0  0  0  0  0  0  0
   -0.4330    0.7500    0.0000 C   0  0  0  0  0  0  0  0  0  0  0  0
    0.8660    0.0000    0.0000 C   0  0  0  0  0  0  0  0  0  0  0  0
   -0.4330   -0.7500    0.0000 C   0  0  0  0  0  0  0  0  0  0  0  0
   -1.1301   -2.0782    0.0000 C   0  0  0  0  0  0  0  0  0  0  0  0
   -2.3646   -2.9303    0.0000 C   0  0  0  0  0  0  0  0  0  0  0  0
   -3.8536   -3.1111    0.0000 C   0  0  0  0  0  0  0  0  0  0  0  0
   -4.0344   -4.6001    0.0000 O   0  0  0  0  0  0  0  0  0  0  0  0
   -2.8353   -5.5013    0.0000 C   0  0  0  0  0  0  0  0  0  0  0  0
   -3.0161   -6.9903    0.0000 C   0  0  0  0  0  0  0  0  0  0  0  0
   -1.8169   -7.8914    0.0000 C   0  0  0  0  0  0  0  0  0  0  0  0
   -1.9977   -9.3805    0.0000 C   0  0  0  0  0  0  0  0  0  0  0  0
   -0.7986  -10.2816    0.0000 C   0  0  0  0  0  0  0  0  0  0  0  0
   -0.9794  -11.7707    0.0000 C   0  0  0  0  0  0  0  0  0  0  0  0
    0.5814   -9.6937    0.0000 P   0  0  0  0  0  0  0  0  0  0  0  0
    1.7806  -10.5948    0.0000 C   0  0  0  0  0  0  0  0  0  0  0  0
    3.1605  -10.0068    0.0000 C   0  0  0  0  0  0  0  0  0  0  0  0
    4.3597  -10.9079    0.0000 C   0  0  0  0  0  0  0  0  0  0  0  0
    5.7397  -10.3200    0.0000 C   0  0  0  0  0  0  0  0  0  0  0  0
    6.9388  -11.2211    0.0000 C   0  0  0  0  0  0  0  0  0  0  0  0
    8.3188  -10.6332    0.0000 C   0  0  0  0  0  0  0  0  0  0  0  0
    9.5180  -11.5343    0.0000 C   0  0  0  0  0  0  0  0  0  0  0  0
   10.8979  -10.9463    0.0000 C   0  0  0  0  0  0  0  0  0  0  0  0
   12.0971  -11.8474    0.0000 C   0  0  0  0  0  0  0  0  0  0  0  0
   13.4771  -11.2595    0.0000 C   0  0  0  0  0  0  0  0  0  0  0  0
   11.9163  -13.3365    0.0000 C   0  0  0  0  0  0  0  0  0  0  0  0
   10.5363  -13.9244    0.0000 O   0  0  0  0  0  0  0  0  0  0  0  0
   13.1155  -14.2376    0.0000 C   0  0  0  0  0  3  0  0  0  0  0  0
   12.9347  -15.7267    0.0000 C   0  0  0  0  0  0  0  0  0  0  0  0
   14.1338  -16.6278    0.0000 C   0  0  0  0  0  0  0  0  0  0  0  0
   13.9530  -18.1169    0.0000 F   0  0  0  0  0  0  0  0  0  0  0  0
   15.5138  -16.0398    0.0000 P   0  0  0  0  0  0  0  0  0  0  0  0
   16.7130  -16.9410    0.0000 C   0  0  0  0  0  0  0  0  0  0  0  0
   18.0929  -16.3530    0.0000 C   0  0  0  0  0  0  0  0  0  0  0  0
   19.2921  -17.2541    0.0000 C   0  0  0  0  0  0  0  0  0  0  0  0
   20.6721  -16.6662    0.0000 C   0  0  0  0  0  0  0  0  0  0  0  0
   21.8712  -17.5673    0.0000 C   0  0  0  0  0  2  0  0  0  0  0  0
   20.8529  -15.1771    0.0000 C   0  0  0  0  0  0  0  0  0  0  0  0
   22.2328  -14.5892    0.0000 C   0  0  0  0  0  3  0  0  0  0  0  0
   22.4136  -13.1001    0.0000 C   0  0  0  0  0  0  0  0  0  0  0  0
   23.7936  -12.5121    0.0000 C   0  0  0  0  0  0  0  0  0  0  0  0
   21.2145  -12.1990    0.0000 C   0  0  0  0  0  0  0  0  0  0  0  0
   21.3953  -10.7099    0.0000 C   0  0  0  0  0  0  0  0  0  0  0  0
   20.1961   -9.8088    0.0000 C   0  0  0  0  0  0  0  0  0  0  0  0
   22.7753  -10.1220    0.0000 P   0  0  0  0  0  0  0  0  0  0  0  0
   23.6555  -11.3365    0.0000 C   0  0  0  0  0  0  0  0  0  0  0  0
   24.9756  -12.0488    0.0000 C   0  0  0  0  0  0  0  0  0  0  0  0
   26.4740  -12.1178    0.0000 C   0  0  0  0  0  0  0  0  0  0  0  0
   26.7402  -13.5940    0.0000 C   0  0  0  0  0  0  0  0  0  0  0  0
   27.8540  -11.5299    0.0000 C   0  0  0  0  0  0  0  0  0  0  0  0
   28.8422  -10.4014    0.0000 C   0  0  0  0  0  3  0  0  0  0  0  0
   29.2429   -8.9559    0.0000 C   0  0  0  0  0  0  0  0  0  0  0  0
   28.9768   -7.4797    0.0000 C   0  0  0  0  0  3  0  0  0  0  0  0
   28.0965   -6.2652    0.0000 C   0  0  0  0  0  0  0  0  0  0  0  0
   29.0847   -5.1367    0.0000 C   0  0  0  0  0  2  0  0  0  0  0  0
   26.7764   -5.5529    0.0000 C   0  0  0  0  0  0  0  0  0  0  0  0
   25.2780   -5.4839    0.0000 C   0  0  0  0  0  0  0  0  0  0  0  0
   23.8980   -6.0718    0.0000 C   0  0  0  0  0  3  0  0  0  0  0  0
   22.9098   -7.2003    0.0000 P   0  0  0  0  0  0  0  0  0  0  0  0
   21.5898   -6.4880    0.0000 C   0  0  0  0  0  0  0  0  0  0  0  0
   22.5091   -8.6458    0.0000 C   0  0  0  0  0  0  0  0  0  0  0  0
   21.0107   -8.5767    0.0000 C   0  0  0  0  0  0  0  0  0  0  0  0
   20.3213   -7.2446    0.0000 P   0  0  0  0  0  0  0  0  0  0  0  0
  1  2  1  0
  2  3  1  0
  2  4  1  0
  4  5  1  0
  5  6  1  0
  6  7  1  0
  7  8  1  6
  7  9  1  0
  9 10  1  0
 10 11  1  0
 11 12  1  0
 12 13  1  6
 12 14  1  0
 14 15  1  0
 15 16  1  0
 16 17  1  0
 16 18  1  0
 18 19  1  0
 19 20  1  0
 20 21  1  0
 20 22  1  0
 22 23  1  0
 23 24  1  0
 24 25  1  0
 24 26  1  0
 26 27  1  0
 27 28  1  0
 28 29  1  0
 29 30  1  0
 30 31  1  0
 31 32  1  1
 32 33  1  0
 33 34  1  0
 34 35  1  0
 35 36  1  0
 36 37  1  0
 37 38  1  0
 37 39  1  0
 39 40  1  0
 40 41  1  0
 41 42  1  0
 42 43  1  0
 43 44  1  0
 44 45  1  0
 45 46  1  0
 46 47  1  0
 47 48  1  0
 48 49  1  6
 48 50  1  0
 50 51  1  0
 50 52  1  0
 52 53  1  0
 53 54  1  0
 54 55  1  1
 54 56  1  0
 56 57  1  0
 57 58  1  0
 58 59  1  0
 59 60  1  0
 60 61  1  6
 60 62  1  0
 62 63  1  0
 63 64  1  0
 64 65  1  6
 64 66  1  0
 66 67  1  0
 67 68  1  0
 67 69  1  0
 69 70  1  0
 70 71  1  0
 71 72  1  0
 72 73  1  0
 72 74  1  0
 74 75  1  0
 75 76  1  0
 76 77  1  0
 77 78  1  0
 78 79  1  1
 78 80  1  0
 80 81  1  0
 81 82  1  0
 82 83  1  0
 83 84  1  0
 83 85  1  0
 85 86  1  6
 86 87  1  0
 31 15  1  0
 28 26  1  0
 85 69  1  0
M  RAD  8   9   2  14   2  52   2  61   3  63   2  75   2  77   2  79   3
M  RAD  1  82   2
M  END
$$$$
