
     RDKit          3D

 13 13  0  0  0  0  0  0  0  0999 V2000
    4.3766    0.7800   -1.9505 N   0  0  0  0  0  0  0  0  0  0  0  0
    4.0556    0.1231   -0.8902 C   0  0  0  0  0  0  0  0  0  0  0  0
    3.0154   -0.8653   -0.9166 C   0  0  0  0  0  0  0  0  0  0  0  0
    2.1164   -1.6922   -0.9324 C   0  0  0  0  0  0  0  0  0  0  0  0
    1.0775   -2.6253   -0.9680 N   0  0  0  0  0  0  0  0  0  0  0  0
   -0.1347   -2.2524   -0.7690 C   0  0  0  0  0  0  0  0  0  0  0  0
   -0.4279   -0.8372   -0.5028 C   0  0  0  0  0  3  0  0  0  0  0  0
   -2.0786   -0.4696   -0.4875 S   0  0  0  0  0  0  0  0  0  0  0  0
   -3.3910   -0.3381    0.3166 S   0  0  0  0  0  0  0  0  0  0  0  0
   -2.2745    0.3787    1.4460 N   0  0  0  0  0  0  0  0  0  0  0  0
   -1.7309    1.5806    1.1290 O   0  0  0  0  0  0  0  0  0  0  0  0
   -2.6591    2.2447    0.2970 C   0  0  0  0  0  0  0  0  0  0  0  0
   -1.9449    3.9731   -0.1948 Br  0  0  0  0  0  0  0  0  0  0  0  0
  1  2  2  0
  2  3  1  0
  3  4  3  0
  4  5  1  0
  5  6  2  3
  6  7  1  0
  7  8  1  0
  8  9  1  0
  9 10  1  0
 10 11  1  0
 11 12  1  0
 12 13  1  0
 10  8  1  0
M  RAD  1   7   2
M  END
$$$$
