
     RDKit          3D

 93 93  0  0  0  0  0  0  0  0999 V2000
  -18.8585    5.5943   -1.3540 C   0  0  0  0  0  0  0  0  0  0  0  0
  -19.4991    6.1260   -0.1083 C   0  0  0  0  0  0  0  0  0  0  0  0
  -19.7491    7.6185   -0.2237 C   0  0  0  0  0  0  0  0  0  0  0  0
  -18.6589    5.8042    1.1076 C   0  0  0  0  0  0  0  0  0  0  0  0
  -18.4928    4.3181    1.2679 C   0  0  0  0  0  0  0  0  0  0  0  0
  -17.8052    3.7984    0.0181 C   0  0  0  0  0  0  0  0  0  0  0  0
  -17.5960    2.3056    0.0713 C   0  0  1  0  0  0  0  0  0  0  0  0
  -18.9832    1.6580    0.1990 C   0  0  0  0  0  0  0  0  0  0  0  0
  -16.9623    1.8880   -1.2301 C   0  0  0  0  0  3  0  0  0  0  0  0
  -16.6962    0.4069   -1.3165 C   0  0  0  0  0  0  0  0  0  0  0  0
  -16.0791    0.1248   -2.6652 C   0  0  0  0  0  0  0  0  0  0  0  0
  -15.7598   -1.3124   -2.9070 C   0  0  0  0  0  3  0  0  0  0  0  0
  -16.9637   -2.2107   -2.8315 C   0  0  0  0  0  0  0  0  0  0  0  0
  -14.5957   -1.8088   -2.1285 C   0  0  0  0  0  3  0  0  0  0  0  0
  -13.4940   -0.7850   -1.9873 C   0  0  0  0  0  0  0  0  0  0  0  0
  -12.3192   -1.3413   -1.2137 C   0  0  0  0  0  0  0  0  0  0  0  0
  -11.2109   -0.3523   -1.0626 C   0  0  0  0  0  0  0  0  0  0  0  0
  -12.8037   -1.9194    0.0761 C   0  0  0  0  0  0  0  0  0  0  0  0
  -12.3853   -3.3544    0.2709 C   0  0  0  0  0  0  0  0  0  0  0  0
  -13.5400   -4.3340    0.1443 C   0  0  0  0  0  0  0  0  0  0  0  0
  -12.9607   -5.6049   -0.4894 C   0  0  0  0  0  0  0  0  0  0  0  0
  -14.0861   -4.7540    1.4936 C   0  0  0  0  0  0  0  0  0  0  0  0
  -14.0569   -3.6436    2.4931 C   0  0  0  0  0  0  0  0  0  0  0  0
  -15.0489   -2.5507    2.1882 C   0  0  0  0  0  0  0  0  0  0  0  0
  -16.1432   -2.9860    1.2649 C   0  0  0  0  0  0  0  0  0  0  0  0
  -15.5271   -2.0153    3.3833 O   0  0  0  0  0  0  0  0  0  0  0  0
  -15.1104   -0.6843    3.5384 C   0  0  0  0  0  0  0  0  0  0  0  0
  -15.1239    0.0336    2.1995 C   0  0  0  0  0  0  0  0  0  0  0  0
  -14.3594    1.3342    2.2689 C   0  0  0  0  0  0  0  0  0  0  0  0
  -13.3765    1.4782    1.1243 C   0  0  0  0  0  0  0  0  0  0  0  0
  -12.4147    0.2939    1.0622 C   0  0  0  0  0  3  0  0  0  0  0  0
  -11.3622    0.6054    0.0301 C   0  0  0  0  0  0  0  0  0  0  0  0
  -10.2484    1.2210    0.6244 N   0  0  0  0  0  0  0  0  0  0  0  0
   -9.4647    2.0487   -0.1853 C   0  0  0  0  0  0  0  0  0  0  0  0
   -8.6160    1.3881   -1.1832 C   0  0  0  0  0  3  0  0  0  0  0  0
   -8.4950   -0.0951   -1.1326 C   0  0  0  0  0  0  0  0  0  0  0  0
   -7.9082   -0.5526    0.1595 C   0  0  0  0  0  0  0  0  0  0  0  0
   -7.7642   -2.0502    0.2516 C   0  0  0  0  0  0  0  0  0  0  0  0
   -6.6394    0.1658    0.5606 C   0  0  0  0  0  0  0  0  0  0  0  0
   -5.5402   -0.0097   -0.4797 C   0  0  0  0  0  3  0  0  0  0  0  0
   -5.1996   -1.4519   -0.7000 C   0  0  0  0  0  0  0  0  0  0  0  0
   -4.1164   -1.4889   -1.7908 C   0  0  0  0  0  0  0  0  0  0  0  0
   -4.7793   -2.2444    0.4468 C   0  0  0  0  0  0  0  0  0  0  0  0
   -3.5969   -1.9562    1.2233 C   0  0  0  0  0  0  0  0  0  0  0  0
   -3.4192   -0.6986    1.9017 C   0  0  0  0  0  0  0  0  0  0  0  0
   -3.3499    0.5703    1.1746 C   0  0  0  0  0  0  0  0  0  0  0  0
   -3.1925    1.7222    2.2074 C   0  0  0  0  0  0  0  0  0  0  0  0
   -2.3074    0.7339    0.1277 C   0  0  0  0  0  0  0  0  0  0  0  0
   -0.9236    0.6310    0.5817 C   0  0  0  0  0  0  0  0  0  0  0  0
   -0.4964   -0.6439    1.1277 C   0  0  0  0  0  0  0  0  0  0  0  0
   -0.4920   -1.8522    0.3294 C   0  0  0  0  0  0  0  0  0  0  0  0
    0.3235   -1.9627   -0.8677 C   0  0  0  0  0  0  0  0  0  0  0  0
    0.0471   -0.9472   -1.9121 C   0  0  0  0  0  3  0  0  0  0  0  0
    0.6400    0.4143   -1.6781 C   0  0  0  0  0  0  0  0  0  0  0  0
    2.1242    0.3812   -1.8725 C   0  0  0  0  0  0  0  0  0  0  0  0
    2.8184   -0.5394   -0.9927 C   0  0  0  0  0  0  0  0  0  0  0  0
    2.7252   -0.2838    0.4759 C   0  0  0  0  0  0  0  0  0  0  0  0
    3.5292   -1.3682    1.1991 C   0  0  0  0  0  0  0  0  0  0  0  0
    4.9550   -1.2244    0.6738 C   0  0  0  0  0  0  0  0  0  0  0  0
    4.9751   -1.4274   -0.8427 C   0  0  0  0  0  0  0  0  0  0  0  0
    5.8066   -2.3097    1.3118 C   0  0  0  0  0  3  0  0  0  0  0  0
    7.1832   -2.1436    0.6963 C   0  0  0  0  0  0  0  0  0  0  0  0
    7.2476   -1.8820   -0.5907 C   0  0  0  0  0  3  0  0  0  0  0  0
    8.3813   -1.6732   -1.4479 C   0  0  0  0  0  0  0  0  0  0  0  0
    9.7144   -1.5921   -0.7846 C   0  0  0  0  0  0  0  0  0  0  0  0
    9.7438   -0.4633    0.1960 C   0  0  0  0  0  0  0  0  0  0  0  0
   11.0751   -0.3301    0.8613 C   0  0  0  0  0  0  0  0  0  0  0  0
   11.1808    0.7608    1.8553 C   0  0  0  0  0  0  0  0  0  0  0  0
   12.2220   -0.5420   -0.0481 C   0  0  0  0  0  0  0  0  0  0  0  0
   13.5374   -0.4016    0.6017 C   0  0  0  0  0  0  0  0  0  0  0  0
   13.8374    0.9568    1.1514 C   0  0  0  0  0  0  0  0  0  0  0  0
   13.9065    2.0664    0.2099 C   0  0  0  0  0  0  0  0  0  0  0  0
   12.6999    2.3473   -0.5912 C   0  0  0  0  0  0  0  0  0  0  0  0
   15.1709    2.3006   -0.4834 C   0  0  0  0  0  0  0  0  0  0  0  0
   15.7192    1.2340   -1.3446 C   0  0  0  0  0  0  0  0  0  0  0  0
   16.0540   -0.0660   -0.6820 C   0  0  0  0  0  0  0  0  0  0  0  0
   17.0888    0.1454    0.3670 C   0  0  0  0  0  0  0  0  0  0  0  0
   17.5224   -1.0675    1.1099 C   0  0  0  0  0  0  0  0  0  0  0  0
   18.1750    1.0936   -0.0171 C   0  0  0  0  0  3  0  0  0  0  0  0
   18.9375    0.7029   -1.2370 C   0  0  0  0  0  0  0  0  0  0  0  0
   19.6421   -0.6092   -1.1687 C   0  0  0  0  0  0  0  0  0  0  0  0
   20.6687   -0.7021   -0.0697 C   0  0  0  0  0  2  0  0  0  0  0  0
   21.5390   -1.8351   -0.2864 N   0  0  0  0  0  0  0  0  0  0  0  0
   22.9032   -1.5499    0.1158 C   0  0  0  0  0  0  0  0  0  0  0  0
   23.4862   -0.5308   -0.8197 C   0  0  0  0  0  0  0  0  0  0  0  0
   22.6557    0.7525   -0.7629 C   0  0  0  0  0  3  0  0  0  0  0  0
   23.2681    1.7674   -1.7022 C   0  0  0  0  0  0  0  0  0  0  0  0
   24.6986    2.0744   -1.2995 C   0  0  0  0  0  0  0  0  0  0  0  0
   24.7669    2.6218    0.0788 C   0  0  0  0  0  0  0  0  0  0  0  0
   26.0858    2.9650    0.6109 C   0  0  0  0  0  0  0  0  0  0  0  0
   27.0241    1.9732    0.7587 N   0  0  0  0  0  0  0  0  0  0  0  0
   27.6353    1.3232   -0.3191 C   0  0  0  0  0  0  0  0  0  0  0  0
   26.8565    0.4022   -1.1654 C   0  0  0  0  0  0  0  0  0  0  0  0
  1  2  1  0
  2  3  1  0
  2  4  1  0
  4  5  1  0
  5  6  1  0
  6  7  1  0
  7  8  1  6
  7  9  1  0
  9 10  1  0
 10 11  1  0
 11 12  1  0
 12 13  1  0
 12 14  1  0
 14 15  1  0
 15 16  1  0
 16 17  1  0
 16 18  1  0
 18 19  1  0
 19 20  1  0
 20 21  1  0
 20 22  1  0
 22 23  1  0
 23 24  1  0
 24 25  1  0
 24 26  1  0
 26 27  1  0
 27 28  1  0
 28 29  1  0
 29 30  1  0
 30 31  1  0
 31 32  1  0
 32 33  1  0
 33 34  1  0
 34 35  1  0
 35 36  1  0
 36 37  1  0
 37 38  1  0
 37 39  1  0
 39 40  1  0
 40 41  1  0
 41 42  1  0
 41 43  1  0
 43 44  1  0
 44 45  1  0
 45 46  1  0
 46 47  1  0
 46 48  1  0
 48 49  1  0
 49 50  1  0
 50 51  1  0
 51 52  1  0
 52 53  1  0
 53 54  1  0
 54 55  1  0
 55 56  1  0
 56 57  1  0
 57 58  1  0
 58 59  1  0
 59 60  1  0
 59 61  1  0
 61 62  1  0
 62 63  2  3
 63 64  1  0
 64 65  1  0
 65 66  1  0
 66 67  1  0
 67 68  1  0
 67 69  1  0
 69 70  1  0
 70 71  1  0
 71 72  1  0
 72 73  1  0
 72 74  1  0
 74 75  1  0
 75 76  1  0
 76 77  1  0
 77 78  1  0
 77 79  1  0
 79 80  1  0
 80 81  1  0
 81 82  1  0
 82 83  1  0
 83 84  1  0
 84 85  1  0
 85 86  1  0
 86 87  1  0
 87 88  1  0
 88 89  1  0
 89 90  1  0
 90 91  1  0
 91 92  1  0
 92 93  1  0
 32 17  1  0
M  RAD  8   9   2  12   2  14   2  31   2  35   2  40   2  53   2  61   2
M  RAD  4  63   2  79   2  82   3  86   2
M  END
$$$$
