
     RDKit          2D

 79 78  0  0  0  0  0  0  0  0999 V2000
    0.0000    0.0000    0.0000 C   0  0  0  0  0  0  0  0  0  0  0  0
    1.2990    0.7500    0.0000 C   0  0  0  0  0  0  0  0  0  0  0  0
    2.5981   -0.0000    0.0000 C   0  0  0  0  0  0  0  0  0  0  0  0
    1.2990    2.2500    0.0000 C   0  0  0  0  0  0  0  0  0  0  0  0
    2.5981    3.0000    0.0000 C   0  0  0  0  0  0  0  0  0  0  0  0
    2.5981    4.5000    0.0000 C   0  0  0  0  0  0  0  0  0  0  0  0
    3.8971    5.2500    0.0000 C   0  0  0  0  0  0  0  0  0  0  0  0
    3.8971    6.7500    0.0000 C   0  0  0  0  0  0  0  0  0  0  0  0
    5.1962    4.5000    0.0000 C   0  0  0  0  0  3  0  0  0  0  0  0
    6.4952    5.2500    0.0000 C   0  0  0  0  0  0  0  0  0  0  0  0
    7.7942    4.5000    0.0000 C   0  0  0  0  0  0  0  0  0  0  0  0
    9.0933    5.2500    0.0000 C   0  0  0  0  0  3  0  0  0  0  0  0
   10.3923    4.5000    0.0000 C   0  0  0  0  0  3  0  0  0  0  0  0
   11.6913    5.2500    0.0000 C   0  0  0  0  0  0  0  0  0  0  0  0
   12.9904    4.5000    0.0000 C   0  0  0  0  0  0  0  0  0  0  0  0
   14.2894    5.2500    0.0000 C   0  0  0  0  0  3  0  0  0  0  0  0
   15.5885    4.5000    0.0000 C   0  0  0  0  0  0  0  0  0  0  0  0
   16.8875    5.2500    0.0000 C   0  0  0  0  0  0  0  0  0  0  0  0
   16.8875    6.7500    0.0000 N   0  0  0  0  0  0  0  0  0  0  0  0
   18.1865    4.5000    0.0000 C   0  0  0  0  0  3  0  0  0  0  0  0
   19.4856    5.2500    0.0000 C   0  0  0  0  0  0  0  0  0  0  0  0
   20.7846    4.5000    0.0000 C   0  0  0  0  0  0  0  0  0  0  0  0
   22.0836    5.2500    0.0000 C   0  0  0  0  0  0  0  0  0  0  0  0
   23.3827    4.5000    0.0000 C   0  0  0  0  0  0  0  0  0  0  0  0
   24.6817    5.2500    0.0000 C   0  0  0  0  0  0  0  0  0  0  0  0
   25.9808    4.5000    0.0000 C   0  0  0  0  0  0  0  0  0  0  0  0
   27.2798    5.2500    0.0000 C   0  0  0  0  0  0  0  0  0  0  0  0
   28.5788    4.5000    0.0000 C   0  0  0  0  0  0  0  0  0  0  0  0
   29.8779    5.2500    0.0000 C   0  0  0  0  0  0  0  0  0  0  0  0
   30.6279    3.9510    0.0000 O   0  0  0  0  0  0  0  0  0  0  0  0
   31.1769    6.0000    0.0000 C   0  0  0  0  0  0  0  0  0  0  0  0
   29.1279    6.5490    0.0000 C   0  0  0  0  0  0  0  0  0  0  0  0
   29.8779    7.8481    0.0000 C   0  0  0  0  0  0  0  0  0  0  0  0
   27.6279    6.5490    0.0000 C   0  0  0  0  0  0  0  0  0  0  0  0
   26.8779    7.8481    0.0000 C   0  0  0  0  0  0  0  0  0  0  0  0
   25.3779    7.8481    0.0000 C   0  0  0  0  0  0  0  0  0  0  0  0
   24.6279    9.1471    0.0000 C   0  0  0  0  0  0  0  0  0  0  0  0
   23.1279    9.1471    0.0000 C   0  0  0  0  0  0  0  0  0  0  0  0
   22.3779   10.4462    0.0000 C   0  0  0  0  0  0  0  0  0  0  0  0
   20.8779   10.4462    0.0000 C   0  0  0  0  0  0  0  0  0  0  0  0
   20.1279   11.7452    0.0000 C   0  0  0  0  0  0  0  0  0  0  0  0
   18.8288   10.9952    0.0000 F   0  0  0  0  0  0  0  0  0  0  0  0
   19.3779   13.0442    0.0000 C   0  0  0  0  0  0  0  0  0  0  0  0
   21.4269   12.4952    0.0000 C   0  0  0  0  0  0  0  0  0  0  0  0
   21.4269   13.9952    0.0000 C   0  0  0  0  0  0  0  0  0  0  0  0
   22.7260   14.7452    0.0000 C   0  0  0  0  0  0  0  0  0  0  0  0
   22.7260   16.2452    0.0000 C   0  0  0  0  0  0  0  0  0  0  0  0
   24.0250   16.9952    0.0000 C   0  0  0  0  0  0  0  0  0  0  0  0
   23.2750   18.2942    0.0000 F   0  0  0  0  0  0  0  0  0  0  0  0
   24.7750   15.6962    0.0000 F   0  0  0  0  0  0  0  0  0  0  0  0
   25.3240   17.7452    0.0000 C   0  0  0  0  0  0  0  0  0  0  0  0
   26.6231   16.9952    0.0000 C   0  0  0  0  0  0  0  0  0  0  0  0
   27.9221   17.7452    0.0000 C   0  0  0  0  0  0  0  0  0  0  0  0
   27.9221   19.2452    0.0000 O   0  0  0  0  0  1  0  0  0  0  0  0
   29.2211   16.9952    0.0000 C   0  0  0  0  0  0  0  0  0  0  0  0
   30.5202   17.7452    0.0000 C   0  0  0  0  0  0  0  0  0  0  0  0
   31.8192   16.9952    0.0000 C   0  0  0  0  0  0  0  0  0  0  0  0
   33.1183   17.7452    0.0000 C   0  0  0  0  0  0  0  0  0  0  0  0
   33.1183   19.2452    0.0000 O   0  0  0  0  0  1  0  0  0  0  0  0
   34.4173   16.9952    0.0000 C   0  0  0  0  0  0  0  0  0  0  0  0
   35.7163   17.7452    0.0000 C   0  0  0  0  0  0  0  0  0  0  0  0
   37.0154   16.9952    0.0000 C   0  0  0  0  0  0  0  0  0  0  0  0
   38.3144   17.7452    0.0000 C   0  0  0  0  0  0  0  0  0  0  0  0
   39.6134   16.9952    0.0000 C   0  0  0  0  0  3  0  0  0  0  0  0
   40.9125   17.7452    0.0000 C   0  0  0  0  0  0  0  0  0  0  0  0
   42.2115   16.9952    0.0000 C   0  0  0  0  0  0  0  0  0  0  0  0
   43.5106   17.7452    0.0000 C   0  0  0  0  0  0  0  0  0  0  0  0
   44.8096   16.9952    0.0000 C   0  0  0  0  0  0  0  0  0  0  0  0
   43.5106   19.2452    0.0000 C   0  0  0  0  0  3  0  0  0  0  0  0
   44.8096   19.9952    0.0000 C   0  0  0  0  0  0  0  0  0  0  0  0
   44.8096   21.4952    0.0000 C   0  0  0  0  0  0  0  0  0  0  0  0
   46.1086   22.2452    0.0000 C   0  0  0  0  0  0  0  0  0  0  0  0
   46.1086   23.7452    0.0000 C   0  0  0  0  0  0  0  0  0  0  0  0
   47.4077   24.4952    0.0000 C   0  0  0  0  0  0  0  0  0  0  0  0
   47.4077   25.9952    0.0000 C   0  0  0  0  0  0  0  0  0  0  0  0
   48.7067   26.7452    0.0000 C   0  0  0  0  0  0  0  0  0  0  0  0
   48.7067   28.2452    0.0000 C   0  0  0  0  0  3  0  0  0  0  0  0
   50.0058   28.9952    0.0000 C   0  0  0  0  0  0  0  0  0  0  0  0
   50.0058   30.4952    0.0000 C   0  0  0  0  0  0  0  0  0  0  0  0
  1  2  1  0
  2  3  1  0
  2  4  1  0
  4  5  1  0
  5  6  1  0
  6  7  1  0
  7  8  1  0
  7  9  1  0
  9 10  1  0
 10 11  1  0
 11 12  1  0
 12 13  1  0
 13 14  1  0
 14 15  1  0
 15 16  1  0
 16 17  1  0
 17 18  1  0
 18 19  1  0
 18 20  1  0
 20 21  1  0
 21 22  1  0
 22 23  1  0
 23 24  1  0
 24 25  1  0
 25 26  1  0
 26 27  1  0
 27 28  1  0
 28 29  1  0
 29 30  1  0
 29 31  1  0
 29 32  1  0
 32 33  1  0
 32 34  1  0
 34 35  1  0
 35 36  1  0
 36 37  1  0
 37 38  1  0
 38 39  1  0
 39 40  1  0
 40 41  1  0
 41 42  1  0
 41 43  1  0
 41 44  1  0
 44 45  1  0
 45 46  1  0
 46 47  1  0
 47 48  1  0
 48 49  1  0
 48 50  1  0
 48 51  1  0
 51 52  1  0
 52 53  1  0
 53 54  1  0
 53 55  1  0
 55 56  1  0
 56 57  1  0
 57 58  1  0
 58 59  1  0
 58 60  1  0
 60 61  1  0
 61 62  1  0
 62 63  1  0
 63 64  1  0
 64 65  1  0
 65 66  1  0
 66 67  1  0
 67 68  1  0
 67 69  1  0
 69 70  1  0
 70 71  1  0
 71 72  1  0
 72 73  1  0
 73 74  1  0
 74 75  1  0
 75 76  1  0
 76 77  1  0
 77 78  1  0
 78 79  1  0
M  RAD  8   9   2  12   2  13   2  16   2  20   2  64   2  69   2  77   2
M  CHG  2  54  -1  59  -1
M  END
$$$$
