
     RDKit          3D

  9  9  0  0  0  0  0  0  0  0999 V2000
   -1.3986    1.0296    0.5066 C   0  0  0  0  0  0  0  0  0  0  0  0
   -2.2081    1.3389   -0.7430 C   0  0  0  0  0  2  0  0  0  0  0  0
   -2.5496   -0.1443   -0.7835 C   0  0  0  0  0  0  0  0  0  0  0  0
   -1.3908   -0.4550    0.1596 C   0  0  0  0  0  0  0  0  0  0  0  0
   -0.3160   -0.8851   -0.5871 O   0  0  0  0  0  0  0  0  0  0  0  0
    0.8051   -0.9783    0.0670 O   0  0  0  0  0  0  0  0  0  0  0  0
    1.8344   -0.9990   -0.8872 C   0  0  0  0  0  3  0  0  0  0  0  0
    2.8539   -0.1054   -0.5358 O   0  0  0  0  0  0  0  0  0  0  0  0
    2.3696    1.1987   -0.6577 C   0  0  0  0  0  2  0  0  0  0  0  0
  1  2  1  0
  2  3  1  0
  3  4  1  0
  4  5  1  0
  5  6  1  0
  6  7  1  0
  7  8  1  0
  8  9  1  0
  4  1  1  0
M  RAD  3   2   3   7   2   9   3
M  END
$$$$
