
     RDKit          2D

110111  0  0  0  0  0  0  0  0999 V2000
  -11.8705    8.0333    0.0000 C   0  0  0  0  0  0  0  0  0  0  0  0
  -10.3873    7.8097    0.0000 C   0  0  0  0  0  0  0  0  0  0  0  0
   -9.4520    8.9825    0.0000 C   0  0  0  0  0  0  0  0  0  0  0  0
   -9.8393    6.4134    0.0000 C   0  0  0  0  0  0  0  0  0  0  0  0
   -8.3560    6.1899    0.0000 C   0  0  0  0  0  0  0  0  0  0  0  0
   -7.8080    4.7935    0.0000 C   0  0  0  0  0  0  0  0  0  0  0  0
   -6.3248    4.5700    0.0000 C   0  0  0  0  0  0  0  0  0  0  0  0
   -5.3895    5.7427    0.0000 C   0  0  0  0  0  0  0  0  0  0  0  0
   -5.7767    3.1737    0.0000 C   0  0  0  0  0  3  0  0  0  0  0  0
   -6.7120    2.0009    0.0000 C   0  0  0  0  0  0  0  0  0  0  0  0
   -6.1640    0.6046    0.0000 C   0  0  0  0  0  0  0  0  0  0  0  0
   -7.0992   -0.5681    0.0000 C   0  0  0  0  0  0  0  0  0  0  0  0
   -8.5824   -0.3446    0.0000 C   0  0  0  0  0  0  0  0  0  0  0  0
   -6.5512   -1.9644    0.0000 C   0  0  0  0  0  0  0  0  0  0  0  0
   -5.0679   -2.1880    0.0000 C   0  0  0  0  0  0  0  0  0  0  0  0
   -4.5199   -3.5843    0.0000 C   0  0  0  0  0  0  0  0  0  0  0  0
   -5.4552   -4.7571    0.0000 C   0  0  0  0  0  0  0  0  0  0  0  0
   -3.0367   -3.8079    0.0000 C   0  0  0  0  0  0  0  0  0  0  0  0
   -2.1015   -2.6351    0.0000 C   0  0  0  0  0  0  0  0  0  0  0  0
   -0.7500   -3.2860    0.0000 C   0  0  0  0  0  0  0  0  0  0  0  0
   -0.7200   -4.7857    0.0000 O   0  0  0  0  0  0  0  0  0  0  0  0
    0.7500   -3.2860    0.0000 C   0  0  0  0  0  0  0  0  0  0  0  0
    2.1015   -2.6351    0.0000 C   0  0  0  0  0  0  0  0  0  0  0  0
    3.0367   -1.4624    0.0000 C   0  0  0  0  0  0  0  0  0  0  0  0
    3.0047   -2.9515    0.0000 C   0  0  0  0  0  0  0  0  0  0  0  0
    3.3705    0.0000    0.0000 C   0  0  0  0  0  0  0  0  0  0  0  0
    3.0367    1.4624    0.0000 S   0  0  0  0  0  0  0  0  0  0  0  0
    2.1015    2.6351    0.0000 C   0  0  0  0  0  0  0  0  0  0  0  0
    0.7500    3.2860    0.0000 C   0  0  0  0  0  0  0  0  0  0  0  0
   -0.7500    3.2860    0.0000 C   0  0  0  0  0  3  0  0  0  0  0  0
   -2.1015    2.6351    0.0000 S   0  0  0  0  0  0  0  0  0  0  0  0
   -3.0367    1.4624    0.0000 C   0  0  0  0  0  0  0  0  0  0  0  0
   -3.3705    0.0000    0.0000 C   0  0  0  0  0  3  0  0  0  0  0  0
   -3.0367   -1.4624    0.0000 C   0  0  0  0  0  0  0  0  0  0  0  0
   -3.2175   -2.9515    0.0000 C   0  0  0  0  0  0  0  0  0  0  0  0
   -2.6856   -4.3540    0.0000 C   0  0  0  0  0  0  0  0  0  0  0  0
   -1.5628   -5.3487    0.0000 C   0  0  0  0  0  3  0  0  0  0  0  0
   -0.1064   -5.7076    0.0000 C   0  0  0  0  0  0  0  0  0  0  0  0
    1.3500   -5.3487    0.0000 C   0  0  0  0  0  3  0  0  0  0  0  0
    2.4728   -4.3540    0.0000 C   0  0  0  0  0  0  0  0  0  0  0  0
    3.7072   -5.2061    0.0000 C   0  0  0  0  0  0  0  0  0  0  0  0
    3.5865   -6.7012    0.0000 C   0  0  0  0  0  0  0  0  0  0  0  0
    4.8210   -7.5533    0.0000 C   0  0  0  0  0  0  0  0  0  0  0  0
    4.7003   -9.0484    0.0000 C   0  0  0  0  0  3  0  0  0  0  0  0
    5.9348   -9.9005    0.0000 C   0  0  0  0  0  0  0  0  0  0  0  0
    5.8141  -11.3957    0.0000 S   0  0  0  0  0  0  0  0  0  0  0  0
    7.0486  -12.2478    0.0000 C   0  0  0  0  0  0  0  0  0  0  0  0
    6.9279  -13.7429    0.0000 C   0  0  0  0  0  0  0  0  0  0  0  0
    8.1624  -14.5950    0.0000 C   0  0  0  0  0  0  0  0  0  0  0  0
    8.0417  -16.0901    0.0000 C   0  0  0  0  0  0  0  0  0  0  0  0
    9.2761  -16.9422    0.0000 C   0  0  0  0  0  3  0  0  0  0  0  0
    9.1554  -18.4374    0.0000 S   0  0  0  0  0  0  0  0  0  0  0  0
   10.3899  -19.2895    0.0000 C   0  0  0  0  0  0  0  0  0  0  0  0
    7.8003  -19.0804    0.0000 C   0  0  0  0  0  0  0  0  0  0  0  0
    7.6796  -20.5756    0.0000 C   0  0  0  0  0  3  0  0  0  0  0  0
    6.3244  -21.2186    0.0000 C   0  0  0  0  0  3  0  0  0  0  0  0
    6.2037  -22.7137    0.0000 C   0  0  0  0  0  3  0  0  0  0  0  0
    4.8485  -23.3568    0.0000 C   0  0  0  0  0  0  0  0  0  0  0  0
    4.7278  -24.8519    0.0000 C   0  0  0  0  0  0  0  0  0  0  0  0
    3.3726  -25.4949    0.0000 C   0  0  0  0  0  0  0  0  0  0  0  0
    2.0174  -26.1380    0.0000 C   0  0  0  0  0  0  0  0  0  0  0  0
    0.6623  -26.7810    0.0000 S   0  0  0  0  0  0  0  0  0  0  0  0
    0.5416  -28.2762    0.0000 C   0  0  0  0  0  0  0  0  0  0  0  0
   -0.8136  -28.9192    0.0000 C   0  0  0  0  0  3  0  0  0  0  0  0
   -0.9343  -30.4143    0.0000 C   0  0  0  0  0  0  0  0  0  0  0  0
   -2.2895  -31.0574    0.0000 C   0  0  0  0  0  3  0  0  0  0  0  0
   -2.4102  -32.5525    0.0000 C   0  0  0  0  0  0  0  0  0  0  0  0
   -3.7654  -33.1955    0.0000 C   0  0  0  0  0  0  0  0  0  0  0  0
   -3.8861  -34.6907    0.0000 C   0  0  0  0  0  3  0  0  0  0  0  0
   -5.2412  -35.3337    0.0000 C   0  0  0  0  0  0  0  0  0  0  0  0
   -5.3619  -36.8289    0.0000 C   0  0  0  0  0  0  0  0  0  0  0  0
   -6.7171  -37.4719    0.0000 C   0  0  0  0  0  3  0  0  0  0  0  0
   -6.8378  -38.9670    0.0000 C   0  0  0  0  0  0  0  0  0  0  0  0
   -8.1930  -39.6101    0.0000 C   0  0  0  0  0  0  0  0  0  0  0  0
   -8.3137  -41.1052    0.0000 S   0  0  0  0  0  0  0  0  0  0  0  0
   -9.6689  -41.7482    0.0000 C   0  0  0  0  0  0  0  0  0  0  0  0
   -9.7896  -43.2434    0.0000 C   0  0  0  0  0  0  0  0  0  0  0  0
  -11.1447  -43.8864    0.0000 C   0  0  0  0  0  0  0  0  0  0  0  0
  -11.2654  -45.3816    0.0000 C   0  0  0  0  0  3  0  0  0  0  0  0
  -12.6206  -46.0246    0.0000 S   0  0  0  0  0  0  0  0  0  0  0  0
  -12.7413  -47.5197    0.0000 C   0  0  0  0  0  0  0  0  0  0  0  0
  -12.8620  -49.0149    0.0000 C   0  0  0  0  0  0  0  0  0  0  0  0
  -11.6275  -49.8670    0.0000 C   0  0  0  0  0  0  0  0  0  0  0  0
  -11.7482  -51.3621    0.0000 C   0  0  0  0  0  0  0  0  0  0  0  0
  -10.5138  -52.2142    0.0000 C   0  0  0  0  0  0  0  0  0  0  0  0
  -10.6345  -53.7093    0.0000 C   0  0  0  0  0  3  0  0  0  0  0  0
   -9.4000  -54.5614    0.0000 S   0  0  0  0  0  0  0  0  0  0  0  0
   -9.5207  -56.0566    0.0000 C   0  0  0  0  0  0  0  0  0  0  0  0
   -8.2862  -56.9087    0.0000 C   0  0  0  0  0  0  0  0  0  0  0  0
   -8.4069  -58.4038    0.0000 C   0  0  0  0  0  0  0  0  0  0  0  0
   -7.1724  -59.2559    0.0000 C   0  0  0  0  0  0  0  0  0  0  0  0
   -7.2931  -60.7510    0.0000 C   0  0  0  0  0  3  0  0  0  0  0  0
   -6.0586  -61.6031    0.0000 O   0  0  0  0  0  0  0  0  0  0  0  0
   -6.1793  -63.0983    0.0000 S   0  0  0  0  0  0  0  0  0  0  0  0
   -4.9449  -63.9504    0.0000 C   0  0  0  0  0  0  0  0  0  0  0  0
   -5.0656  -65.4455    0.0000 S   0  0  0  0  0  0  0  0  0  0  0  0
   -3.8311  -66.2976    0.0000 C   0  0  0  0  0  0  0  0  0  0  0  0
   -3.9518  -67.7927    0.0000 C   0  0  0  0  0  0  0  0  0  0  0  0
   -2.7173  -68.6448    0.0000 C   0  0  0  0  0  0  0  0  0  0  0  0
   -2.8380  -70.1400    0.0000 C   0  0  0  0  0  0  0  0  0  0  0  0
   -1.6035  -70.9921    0.0000 S   0  0  0  0  0  0  0  0  0  0  0  0
   -1.7242  -72.4872    0.0000 C   0  0  0  0  0  0  0  0  0  0  0  0
   -0.4898  -73.3393    0.0000 C   0  0  0  0  0  0  0  0  0  0  0  0
   -0.6105  -74.8344    0.0000 C   0  0  0  0  0  0  0  0  0  0  0  0
    0.6240  -75.6865    0.0000 C   0  0  0  0  0  3  0  0  0  0  0  0
    0.5033  -77.1817    0.0000 C   0  0  0  0  0  3  0  0  0  0  0  0
    1.7378  -78.0338    0.0000 C   0  0  0  0  0  3  0  0  0  0  0  0
    1.6171  -79.5289    0.0000 O   0  0  0  0  0  0  0  0  0  0  0  0
    2.8516  -80.3810    0.0000 S   0  0  0  0  0  0  0  0  0  0  0  0
    2.7309  -81.8761    0.0000 C   0  0  0  0  0  0  0  0  0  0  0  0
  1  2  1  0
  2  3  1  0
  2  4  1  0
  4  5  1  0
  5  6  1  0
  6  7  1  0
  7  8  1  1
  7  9  1  0
  9 10  1  0
 10 11  1  0
 11 12  1  0
 12 13  1  6
 12 14  1  0
 14 15  1  0
 15 16  1  0
 16 17  1  0
 16 18  1  0
 18 19  1  0
 19 20  1  0
 20 21  1  0
 20 22  1  0
 22 23  1  0
 23 24  1  0
 24 25  1  0
 24 26  1  0
 26 27  1  0
 27 28  1  0
 28 29  1  0
 29 30  1  0
 30 31  1  0
 31 32  1  0
 32 33  1  0
 33 34  1  0
 34 35  2  3
 35 36  1  0
 36 37  1  0
 37 38  1  0
 38 39  1  0
 39 40  1  0
 40 41  1  0
 41 42  1  0
 42 43  1  0
 43 44  1  0
 44 45  1  0
 45 46  1  0
 46 47  1  0
 47 48  1  0
 48 49  1  0
 49 50  1  0
 50 51  1  0
 51 52  1  0
 52 53  1  0
 52 54  1  0
 54 55  1  0
 55 56  1  0
 56 57  1  0
 57 58  1  0
 58 59  1  0
 59 60  1  0
 60 61  3  0
 61 62  1  0
 62 63  1  0
 63 64  1  0
 64 65  1  0
 65 66  1  0
 66 67  1  0
 67 68  1  0
 68 69  1  0
 69 70  1  0
 70 71  1  0
 71 72  1  0
 72 73  1  0
 73 74  2  3
 74 75  1  0
 75 76  1  0
 76 77  1  0
 77 78  1  0
 78 79  1  0
 79 80  1  0
 80 81  3  0
 81 82  1  0
 82 83  1  0
 83 84  1  0
 84 85  1  0
 85 86  1  0
 86 87  1  0
 87 88  1  0
 88 89  1  0
 89 90  1  0
 90 91  1  0
 91 92  1  0
 92 93  1  0
 93 94  1  0
 94 95  1  0
 95 96  1  0
 96 97  1  0
 97 98  1  0
 98 99  1  0
 99100  2  3
100101  1  0
101102  1  0
102103  1  0
103104  1  0
104105  1  0
105106  1  0
106107  1  0
107108  1  0
108109  1  0
109110  1  0
 34 19  1  0
 40 25  1  0
M  RAD  8   9   2  30   2  33   2  37   2  39   2  44   2  51   2  55   2
M  RAD  8  56   2  57   2  64   2  66   2  69   2  72   2  79   2  86   2
M  RAD  4  92   2 105   2 106   2 107   2
M  END
$$$$
