
     RDKit          3D

 15 14  0  0  0  0  0  0  0  0999 V2000
    4.8560   -1.1136    0.4396 O   0  0  0  0  0  0  0  0  0  0  0  0
    4.5322    0.0250    0.6939 C   0  0  0  0  0  0  0  0  0  0  0  0
    5.1298    1.1202   -0.1213 C   0  0  0  0  0  3  0  0  0  0  0  0
    3.8294    1.9084   -1.1038 S   0  0  0  0  0  0  0  0  0  0  0  0
    2.2274    1.1395   -0.8018 C   0  0  0  0  0  0  0  0  0  0  0  0
    2.1576    0.2452    0.1493 C   0  0  0  0  0  0  0  0  0  0  0  0
    0.9585   -0.4966    0.5565 C   0  0  0  0  0  0  0  0  0  0  0  0
   -0.2536   -0.1526   -0.2237 C   0  0  0  0  0  0  0  0  0  0  0  0
   -0.9120   -1.0746   -0.9383 C   0  0  0  0  0  0  0  0  0  0  0  0
   -2.3633   -0.5004   -1.8299 S   0  0  0  0  0  0  0  0  0  0  0  0
   -3.2042    0.6836   -0.7924 C   0  0  0  0  0  0  0  0  0  0  0  0
   -3.9628    0.2525    0.2012 C   0  0  0  0  0  0  0  0  0  0  0  0
   -4.1151   -1.1460    0.4510 N   0  0  0  0  0  0  0  0  0  0  0  0
   -4.2033   -2.0874   -0.5958 N   0  0  0  0  0  0  0  0  0  0  0  0
   -4.6766    1.1966    1.0841 C   0  0  0  0  0  0  0  0  0  0  0  0
  1  2  2  0
  2  3  1  0
  3  4  1  0
  4  5  1  0
  5  6  2  3
  6  7  1  0
  7  8  1  0
  8  9  2  3
  9 10  1  0
 10 11  1  0
 11 12  2  3
 12 13  1  0
 13 14  1  0
 12 15  1  0
M  RAD  1   3   2
M  END
$$$$
