
     RDKit          3D

 26 28  0  0  0  0  0  0  0  0999 V2000
    5.5838   -0.0734   -1.4590 C   0  0  0  0  0  0  0  0  0  0  0  0
    4.5079    0.6979   -0.9731 O   0  0  0  0  0  0  0  0  0  0  0  0
    3.4122    0.1258   -0.3635 C   0  0  0  0  0  0  0  0  0  0  0  0
    3.3874   -1.2673   -0.2330 C   0  0  0  0  0  0  0  0  0  0  0  0
    2.2614   -1.8238    0.3900 C   0  0  0  0  0  0  0  0  0  0  0  0
    1.2512   -1.0479    0.8421 C   0  0  0  0  0  0  0  0  0  0  0  0
    1.3402    0.3124    0.6844 C   0  0  0  0  0  0  0  0  0  0  0  0
    2.3950    0.9060    0.0915 C   0  0  0  0  0  0  0  0  0  0  0  0
    2.3719    2.3792   -0.0993 C   0  0  0  0  0  0  0  0  0  0  0  0
    0.8637    2.7546   -0.0407 C   0  0  0  0  0  0  0  0  0  0  0  0
    0.0806    1.5607   -0.4901 C   0  0  0  0  0  0  0  0  0  0  0  0
    0.4159    1.0501   -1.8111 C   0  0  0  0  0  0  0  0  0  0  0  0
   -1.3461    1.4996   -0.0220 C   0  0  0  0  0  0  0  0  0  0  0  0
   -1.6712    1.2751    1.2036 C   0  0  0  0  0  0  0  0  0  0  0  0
   -2.8417    1.1662    2.0052 N   0  0  0  0  0  0  0  0  0  0  0  0
   -0.4566    0.7552    2.0818 C   0  0  0  0  0  0  0  0  0  0  0  0
   -0.8009   -0.7563    2.0624 C   0  0  0  0  0  0  0  0  0  0  0  0
    0.0432   -1.5799    1.4491 C   0  0  0  0  0  0  0  0  0  0  0  0
   -0.3499   -2.9756    1.2557 C   0  0  0  0  0  0  0  0  0  0  0  0
   -1.6940   -2.8627    0.6010 N   0  0  0  0  0  0  0  0  0  0  0  0
   -1.8498   -1.7601   -0.0954 C   0  0  0  0  0  0  0  0  0  0  0  0
   -3.0018   -1.4174   -0.7928 C   0  0  0  0  0  0  0  0  0  0  0  0
   -3.5705   -0.4797   -1.4284 C   0  0  0  0  0  0  0  0  0  0  0  0
   -4.9742   -0.8847   -1.9649 C   0  0  0  0  0  0  0  0  0  0  0  0
   -3.1074    0.8184   -1.7027 C   0  0  0  0  0  0  0  0  0  0  0  0
   -2.2501    1.6277   -1.1909 C   0  0  0  0  0  0  0  0  0  0  0  0
  1  2  1  0
  2  3  1  0
  3  4  2  0
  4  5  1  0
  5  6  2  0
  6  7  1  0
  7  8  2  0
  8  9  1  0
  9 10  1  0
 10 11  1  0
 11 12  1  0
 11 13  1  0
 13 14  2  3
 14 15  1  0
 14 16  1  0
 16 17  1  0
 17 18  2  3
 18 19  1  0
 19 20  1  0
 20 21  2  3
 21 22  1  0
 22 23  2  3
 23 24  1  0
 23 25  1  0
 25 26  2  3
  8  3  1  0
 18  6  1  0
 26 13  1  0
M  END
$$$$
