
     RDKit          3D

  5  4  0  0  0  0  0  0  0  0999 V2000
    1.0877   -0.0649    0.4316 C   0  0  0  0  0  0  0  0  0  0  0  0
    1.9766    0.5510   -0.1340 O   0  0  0  0  0  0  0  0  0  0  0  0
    0.0962   -0.7936   -0.4240 C   0  0  0  0  0  0  0  0  0  0  0  0
   -1.2869   -0.6795    0.2063 C   0  0  0  0  0  0  0  0  0  0  0  0
   -1.8736    0.9870   -0.0799 Cl  0  0  0  0  0  0  0  0  0  0  0  0
  1  2  2  0
  1  3  1  0
  3  4  1  0
  4  5  1  0
M  END
$$$$
