
     RDKit          3D

 44 43  0  0  0  0  0  0  0  0999 V2000
   -7.0580    3.8514   -0.0987 C   0  0  0  0  0  0  0  0  0  0  0  0
   -5.7798    3.9879    0.6359 C   0  0  0  0  0  0  0  0  0  0  0  0
   -4.8794    3.0332    0.5323 C   0  0  0  0  0  0  0  0  0  0  0  0
   -5.1325    1.8652   -0.2875 C   0  0  0  0  0  0  0  0  0  0  0  0
   -4.2091    0.9287   -0.3689 C   0  0  0  0  0  0  0  0  0  0  0  0
   -4.4358   -0.2968   -1.2093 C   0  0  1  0  0  0  0  0  0  0  0  0
   -3.8039   -1.3643   -0.5614 O   0  0  0  0  0  0  0  0  0  0  0  0
   -5.9369   -0.5645   -1.1220 C   0  0  0  0  0  0  0  0  0  0  0  0
   -6.2808   -0.7960    0.3505 C   0  0  1  0  0  0  0  0  0  0  0  0
   -7.6683   -1.0430    0.4257 O   0  0  0  0  0  0  0  0  0  0  0  0
   -5.5470   -2.0867    0.7327 C   0  0  0  0  0  0  0  0  0  0  0  0
   -6.0268   -3.1858   -0.1171 C   0  0  0  0  0  0  0  0  0  0  0  0
   -6.8933   -2.9858   -0.9817 O   0  0  0  0  0  0  0  0  0  0  0  0
   -5.5055   -4.4798    0.0442 O   0  0  0  0  0  1  0  0  0  0  0  0
   -3.6337    3.1514    1.2414 C   0  0  0  0  0  0  0  0  0  0  0  0
   -3.3726    4.3384    2.0824 C   0  0  0  0  0  0  0  0  0  0  0  0
   -2.7287    2.2055    1.1442 C   0  0  0  0  0  0  0  0  0  0  0  0
   -1.4465    2.2359    1.8197 C   0  0  0  0  0  0  0  0  0  0  0  0
   -0.5958    1.2378    1.6651 C   0  0  0  0  0  0  0  0  0  0  0  0
    0.5784    1.3354    2.3247 F   0  0  0  0  0  0  0  0  0  0  0  0
   -0.9352    0.0804    0.8074 C   0  0  0  0  0  0  0  0  0  0  0  0
   -0.9145   -1.1237    1.5830 N   0  0  0  0  0  0  0  0  0  0  0  0
    0.3513   -1.4762    2.1388 C   0  0  0  0  0  0  0  0  0  0  0  0
    1.3854   -1.9003    1.1152 C   0  0  0  0  0  0  0  0  0  0  0  0
    2.6575   -2.2337    1.9080 C   0  0  0  0  0  0  0  0  0  0  0  0
    3.1019   -0.9796    2.6482 C   0  0  0  0  0  0  0  0  0  0  0  0
    3.3801    0.0510    1.5435 C   0  0  0  0  0  0  0  0  0  0  0  0
    3.8258    1.3629    2.1662 C   0  0  0  0  0  0  0  0  0  0  0  0
    4.4452   -0.4787    0.6001 C   0  0  0  0  0  0  0  0  0  0  0  0
    4.0136   -1.7563   -0.0442 C   0  0  0  0  0  0  0  0  0  0  0  0
    5.0804   -2.2776   -0.9757 C   0  0  0  0  0  0  0  0  0  0  0  0
    5.4226   -1.3407   -2.0865 C   0  0  0  0  0  0  0  0  0  0  0  0
    5.9181   -0.0607   -1.6105 N   0  0  0  0  0  0  0  0  0  0  0  0
    6.3009    0.9831   -2.9353 S   0  0  0  0  0  0  0  0  0  0  0  0
    7.2439    2.1215   -2.4552 N   0  0  0  0  0  0  0  0  0  0  0  0
    7.6585    2.1828   -1.0962 C   0  0  0  0  0  0  0  0  0  0  0  0
    9.0330    1.6791   -0.8998 C   0  0  0  0  0  0  0  0  0  0  0  0
    9.5492    1.6530    0.1848 O   0  0  0  0  0  0  0  0  0  0  0  0
    9.8085    1.1888   -2.0684 C   0  0  0  0  0  0  0  0  0  0  0  0
   -0.0519    0.0762   -0.2708 O   0  0  0  0  0  0  0  0  0  0  0  0
   -0.0360   -0.8370   -1.2950 C   0  0  0  0  0  0  0  0  0  0  0  0
    0.5512   -0.6096   -2.4582 C   0  0  0  0  0  0  0  0  0  0  0  0
    1.2402    0.6161   -2.7874 C   0  0  0  0  0  0  0  0  0  0  0  0
    1.3265    1.5694   -1.9638 O   0  0  0  0  0  0  0  0  0  0  0  0
  1  2  1  0
  2  3  2  0
  3  4  1  0
  4  5  2  0
  5  6  1  0
  6  7  1  1
  6  8  1  0
  8  9  1  0
  9 10  1  6
  9 11  1  0
 11 12  1  0
 12 13  2  0
 12 14  1  0
  3 15  1  0
 15 16  1  0
 15 17  2  3
 17 18  1  0
 18 19  2  3
 19 20  1  0
 19 21  1  0
 21 22  1  0
 22 23  1  0
 23 24  1  0
 24 25  1  0
 25 26  1  0
 26 27  1  0
 27 28  1  0
 27 29  1  0
 29 30  1  0
 30 31  1  0
 31 32  1  0
 32 33  1  0
 33 34  1  0
 34 35  2  3
 35 36  1  0
 36 37  1  0
 37 38  2  0
 37 39  1  0
 21 40  1  0
 40 41  1  0
 41 42  2  3
 42 43  1  0
 43 44  2  0
M  CHG  1  14  -1
M  END
$$$$
