
     RDKit          2D

 72 71  0  0  0  0  0  0  0  0999 V2000
   20.7846   -0.0000    0.0000 C   0  0  0  0  0  0  0  0  0  0  0  0
   19.4856    0.7500    0.0000 C   0  0  0  0  0  0  0  0  0  0  0  0
   18.1865   -0.0000    0.0000 C   0  0  0  0  0  0  0  0  0  0  0  0
   19.4856    2.2500    0.0000 C   0  0  0  0  0  0  0  0  0  0  0  0
   18.1865    3.0000    0.0000 C   0  0  0  0  0  0  0  0  0  0  0  0
   18.1865    4.5000    0.0000 C   0  0  0  0  0  0  0  0  0  0  0  0
   16.8875    5.2500    0.0000 C   0  0  0  0  0  3  0  0  0  0  0  0
   16.8875    6.7500    0.0000 C   0  0  0  0  0  0  0  0  0  0  0  0
   15.5885    4.5000    0.0000 C   0  0  0  0  0  3  0  0  0  0  0  0
   14.2894    5.2500    0.0000 C   0  0  0  0  0  0  0  0  0  0  0  0
   12.9904    4.5000    0.0000 C   0  0  0  0  0  3  0  0  0  0  0  0
   11.6913    5.2500    0.0000 C   0  0  0  0  0  0  0  0  0  0  0  0
   10.3923    4.5000    0.0000 C   0  0  0  0  0  0  0  0  0  0  0  0
   11.6913    6.7500    0.0000 C   0  0  0  0  0  3  0  0  0  0  0  0
   10.3923    7.5000    0.0000 C   0  0  0  0  0  0  0  0  0  0  0  0
   10.3923    9.0000    0.0000 C   0  0  0  0  0  0  0  0  0  0  0  0
   11.6913    9.7500    0.0000 C   0  0  0  0  0  2  0  0  0  0  0  0
    9.0933    9.7500    0.0000 C   0  0  0  0  0  0  0  0  0  0  0  0
    9.0933   11.2500    0.0000 C   0  0  0  0  0  0  0  0  0  0  0  0
    7.7942    9.0000    0.0000 C   0  0  0  0  0  0  0  0  0  0  0  0
    7.7942    7.5000    0.0000 N   0  0  0  0  0  0  0  0  0  0  0  0
    6.4952    6.7500    0.0000 C   0  0  0  0  0  0  0  0  0  0  0  0
    5.1962    7.5000    0.0000 C   0  0  0  0  0  0  0  0  0  0  0  0
    6.4952    5.2500    0.0000 C   0  0  0  0  0  3  0  0  0  0  0  0
    7.7942    4.5000    0.0000 C   0  0  0  0  0  0  0  0  0  0  0  0
    7.7942    3.0000    0.0000 C   0  0  0  0  0  0  0  0  0  0  0  0
    9.0933    2.2500    0.0000 C   0  0  0  0  0  0  0  0  0  0  0  0
    9.0933    0.7500    0.0000 C   0  0  0  0  0  0  0  0  0  0  0  0
    6.4952    9.7500    0.0000 C   0  0  0  0  0  0  0  0  0  0  0  0
    5.1962    9.0000    0.0000 C   0  0  0  0  0  2  0  0  0  0  0  0
    6.4952   11.2500    0.0000 C   0  0  0  0  0  0  0  0  0  0  0  0
    5.1962   12.0000    0.0000 C   0  0  0  0  0  3  0  0  0  0  0  0
    5.1962   13.5000    0.0000 C   0  0  0  0  0  0  0  0  0  0  0  0
    6.4952   14.2500    0.0000 O   0  0  0  0  0  0  0  0  0  0  0  0
    3.8971   14.2500    0.0000 C   0  0  0  0  0  3  0  0  0  0  0  0
    3.8971   15.7500    0.0000 C   0  0  0  0  0  0  0  0  0  0  0  0
    7.7942   12.0000    0.0000 C   0  0  0  0  0  0  0  0  0  0  0  0
    7.7942   13.5000    0.0000 O   0  0  0  0  0  0  0  0  0  0  0  0
    9.0933   14.2500    0.0000 C   0  0  0  0  0  0  0  0  0  0  0  0
    9.0933   15.7500    0.0000 C   0  0  0  0  0  0  0  0  0  0  0  0
    7.7942   16.5000    0.0000 C   0  0  0  0  0  0  0  0  0  0  0  0
    7.7942   18.0000    0.0000 C   0  0  0  0  0  3  0  0  0  0  0  0
    6.4952   18.7500    0.0000 C   0  0  0  0  0  3  0  0  0  0  0  0
    6.4952   20.2500    0.0000 C   0  0  0  0  0  2  0  0  0  0  0  0
   10.3923   16.5000    0.0000 C   0  0  0  0  0  3  0  0  0  0  0  0
   10.3923   18.0000    0.0000 C   0  0  0  0  0  0  0  0  0  0  0  0
    9.0933   18.7500    0.0000 C   0  0  0  0  0  0  0  0  0  0  0  0
    9.0933   20.2500    0.0000 F   0  0  0  0  0  0  0  0  0  0  0  0
   11.6913   18.7500    0.0000 C   0  0  0  0  0  0  0  0  0  0  0  0
   11.6913   20.2500    0.0000 C   0  0  0  0  0  0  0  0  0  0  0  0
   12.9904   21.0000    0.0000 C   0  0  0  0  0  0  0  0  0  0  0  0
   10.3923   21.0000    0.0000 C   0  0  0  0  0  0  0  0  0  0  0  0
   10.3923   22.5000    0.0000 C   0  0  0  0  0  3  0  0  0  0  0  0
    9.0933   23.2500    0.0000 C   0  0  0  0  0  3  0  0  0  0  0  0
    9.0933   24.7500    0.0000 C   0  0  0  0  0  0  0  0  0  0  0  0
    7.7942   25.5000    0.0000 C   0  0  0  0  0  3  0  0  0  0  0  0
    7.7942   27.0000    0.0000 C   0  0  0  0  0  0  0  0  0  0  0  0
    9.0933   27.7500    0.0000 O   0  0  0  0  0  0  0  0  0  0  0  0
    9.0933   29.2500    0.0000 C   0  0  0  0  0  2  0  0  0  0  0  0
    6.4952   27.7500    0.0000 C   0  0  0  0  0  0  0  0  0  0  0  0
    6.4952   29.2500    0.0000 C   0  0  0  0  0  0  0  0  0  0  0  0
    5.1962   30.0000    0.0000 C   0  0  0  0  0  3  0  0  0  0  0  0
    5.1962   31.5000    0.0000 C   0  0  0  0  0  0  0  0  0  0  0  0
   10.3923   25.5000    0.0000 O   0  0  0  0  0  0  0  0  0  0  0  0
   10.3923   27.0000    0.0000 C   0  0  0  0  0  3  0  0  0  0  0  0
   11.6913   27.7500    0.0000 C   0  0  0  0  0  0  0  0  0  0  0  0
   11.6913   29.2500    0.0000 C   0  0  0  0  0  0  0  0  0  0  0  0
   12.9904   30.0000    0.0000 C   0  0  0  0  0  0  0  0  0  0  0  0
   12.9904   31.5000    0.0000 C   0  0  0  0  0  0  0  0  0  0  0  0
   14.2894   32.2500    0.0000 O   0  0  0  0  0  0  0  0  0  0  0  0
   10.3923   30.0000    0.0000 O   0  0  0  0  0  0  0  0  0  0  0  0
   10.3923   31.5000    0.0000 O   0  0  0  0  0  0  0  0  0  0  0  0
  1  2  2  0
  2  3  1  0
  2  4  1  0
  4  5  1  0
  5  6  1  0
  6  7  1  0
  7  8  1  0
  7  9  1  0
  9 10  1  0
 10 11  1  0
 11 12  1  0
 12 13  1  6
 12 14  1  0
 14 15  1  0
 15 16  1  0
 16 17  1  6
 16 18  1  0
 18 19  1  6
 18 20  1  0
 20 21  1  1
 21 22  1  0
 22 23  1  1
 22 24  1  0
 24 25  1  0
 25 26  1  0
 26 27  1  0
 27 28  1  0
 20 29  1  0
 29 30  1  6
 29 31  1  0
 31 32  1  6
 32 33  1  0
 33 34  1  0
 33 35  1  0
 35 36  1  0
 31 37  1  0
 37 38  1  0
 38 39  1  0
 40 39  1  1
 40 41  1  0
 41 42  1  0
 42 43  1  0
 43 44  1  0
 40 45  1  0
 45 46  1  0
 46 47  1  0
 47 48  1  0
 46 49  1  0
 49 50  1  0
 50 51  1  6
 50 52  1  0
 52 53  1  0
 53 54  1  0
 55 54  1  6
 55 56  1  0
 56 57  1  0
 57 58  1  0
 58 59  1  0
 57 60  1  0
 60 61  1  0
 61 62  1  0
 62 63  1  0
 55 64  1  0
 64 65  1  0
 65 66  1  0
 67 66  1  6
 67 68  1  0
 68 69  1  0
 69 70  2  0
 67 71  1  0
 71 72  1  0
M  RAD  8   7   2   9   2  11   2  14   2  17   3  24   2  30   3  32   2
M  RAD  8  35   2  42   2  43   2  44   3  45   2  53   2  54   2  56   2
M  RAD  3  59   3  62   2  65   2
M  END
$$$$
