
     RDKit          3D

 23 24  0  0  0  0  0  0  0  0999 V2000
    0.1622    0.2502    0.3472 C   0  0  0  0  0  0  0  0  0  0  0  0
   -0.7101    0.7967   -0.6304 O   0  0  0  0  0  0  0  0  0  0  0  0
   -2.0070    1.2169   -0.3112 C   0  0  0  0  0  0  0  0  0  0  0  0
   -2.6474    2.1026   -1.1706 C   0  0  0  0  0  0  0  0  0  0  0  0
   -3.9258    2.5595   -0.9199 C   0  0  0  0  0  0  0  0  0  0  0  0
   -4.5903    2.1300    0.2104 C   0  0  0  0  0  0  0  0  0  0  0  0
   -3.9481    1.2508    1.0587 C   0  0  0  0  0  0  0  0  0  0  0  0
   -2.6642    0.7822    0.8216 C   0  0  0  0  0  0  0  0  0  0  0  0
   -2.0043   -0.1733    1.7713 C   0  0  0  0  0  0  0  0  0  0  0  0
   -2.2497   -1.6033    1.2922 C   0  0  0  0  0  0  0  0  0  0  0  0
   -1.1252   -2.4954    1.6757 C   0  0  0  0  0  0  0  0  0  0  0  0
   -1.0775   -2.9638    3.0906 C   0  0  0  0  0  0  0  0  0  0  0  0
   -0.2390   -2.8233    0.7591 C   0  0  0  0  0  0  0  0  0  0  0  0
   -0.2397   -2.3923   -0.6396 C   0  0  0  0  0  0  0  0  0  0  0  0
   -0.7622   -3.3855   -1.6120 C   0  0  0  0  0  0  0  0  0  0  0  0
    1.0416   -1.7311   -1.0719 C   0  0  0  0  0  0  0  0  0  0  0  0
    1.2642   -0.4365   -0.3698 C   0  0  0  0  0  0  0  0  0  0  0  0
    2.4592    0.1158   -0.3810 C   0  0  0  0  0  0  0  0  0  0  0  0
    2.6621    1.4044    0.3231 C   0  0  0  0  0  0  0  0  0  0  0  0
    3.7226    1.2060    1.4068 C   0  0  0  0  0  0  0  0  0  0  0  0
    4.9876    0.7567    0.6640 C   0  0  0  0  0  0  0  0  0  0  0  0
    5.3239    1.8828   -0.2970 C   0  0  0  0  0  0  0  0  0  0  0  0
    6.5672    1.5500   -1.0936 C   0  0  0  0  0  0  0  0  0  0  0  0
  1  2  1  0
  2  3  1  0
  3  4  2  0
  4  5  1  0
  5  6  2  0
  6  7  1  0
  7  8  2  0
  8  9  1  0
  9 10  1  0
 10 11  1  0
 11 12  1  0
 11 13  2  3
 13 14  1  0
 14 15  1  0
 14 16  1  0
 16 17  1  0
 17 18  2  3
 18 19  1  0
 19 20  1  0
 20 21  1  0
 21 22  1  0
 22 23  1  0
 17  1  1  0
  8  3  1  0
M  END
$$$$
