
     RDKit          3D

 28 28  0  0  0  0  0  0  0  0999 V2000
    4.9115    0.9830   -2.6478 C   0  0  0  0  0  0  0  0  0  0  0  0
    4.3012    0.6877   -1.2929 C   0  0  0  0  0  0  0  0  0  0  0  0
    3.8772   -0.7676   -1.1909 C   0  0  2  0  0  0  0  0  0  0  0  0
    2.8560   -1.0165   -2.2773 C   0  0  0  0  0  0  0  0  0  0  0  0
    3.1983   -0.9133    0.1838 C   0  0  2  0  0  0  0  0  0  0  0  0
    2.0859   -0.0168    0.1747 N   0  0  0  0  0  0  0  0  0  0  0  0
    1.0222   -0.2652    1.0383 C   0  0  0  0  0  0  0  0  0  0  0  0
    1.1944   -0.2763    2.3757 O   0  0  0  0  0  0  0  0  0  0  0  0
   -0.2635   -0.5499    0.5180 N   0  0  0  0  0  0  0  0  0  0  0  0
   -0.5002   -1.6678   -0.3975 C   0  0  0  0  0  0  0  0  0  0  0  0
   -0.8590   -1.0974   -1.7418 C   0  0  0  0  0  0  0  0  0  0  0  0
   -1.7478   -1.9641   -2.5590 C   0  0  0  0  0  3  0  0  0  0  0  0
   -3.1198   -2.1987   -2.0157 C   0  0  0  0  0  0  0  0  0  0  0  0
   -3.3371   -3.7186   -2.0122 C   0  0  0  0  0  0  0  0  0  0  0  0
   -4.1277   -1.6451   -3.0102 C   0  0  0  0  0  0  0  0  0  0  0  0
   -3.3781   -1.7227   -0.6390 C   0  0  0  0  0  0  0  0  0  0  0  0
   -3.2033   -0.3884   -0.4001 O   0  0  0  0  0  0  0  0  0  0  0  0
   -2.7225   -0.2622    0.9040 C   0  0  2  0  0  0  0  0  0  0  0  0
   -3.6734    0.5135    1.7629 C   0  0  0  0  0  2  0  0  0  0  0  0
   -1.3588    0.2850    0.9170 C   0  0  0  0  0  0  0  0  0  0  0  0
   -1.1523    1.5316    1.2941 C   0  0  0  0  0  0  0  0  0  0  0  0
   -2.2608    2.4195    1.7115 C   0  0  0  0  0  0  0  0  0  0  0  0
   -2.3775    3.6571    0.8721 C   0  0  0  0  0  0  0  0  0  0  0  0
   -1.0782    4.4183    1.0018 C   0  0  0  0  0  3  0  0  0  0  0  0
   -1.1455    5.6282    0.2102 N   0  0  0  0  0  0  0  0  0  0  0  0
    4.2784   -0.5833    1.1762 C   0  0  0  0  0  0  0  0  0  0  0  0
    3.8857   -0.6557    2.5824 C   0  0  0  0  0  0  0  0  0  0  0  0
    4.6948   -0.4145    3.4616 O   0  0  0  0  0  0  0  0  0  0  0  0
  1  2  1  0
  2  3  1  0
  3  4  1  6
  3  5  1  0
  5  6  1  0
  6  7  1  0
  7  8  1  0
  7  9  1  0
  9 10  1  0
 10 11  1  0
 11 12  1  0
 12 13  1  0
 13 14  1  0
 13 15  1  0
 13 16  1  0
 16 17  1  0
 17 18  1  0
 18 19  1  1
 18 20  1  0
 20 21  2  3
 21 22  1  0
 22 23  1  0
 23 24  1  0
 24 25  1  0
  5 26  1  1
 26 27  1  0
 27 28  2  0
 20  9  1  0
M  RAD  3  12   2  19   3  24   2
M  END
$$$$
