
     RDKit          3D

  8  9  0  0  0  0  0  0  0  0999 V2000
    0.6876   -0.0293    0.0771 C   0  0  0  0  0  0  0  0  0  0  0  0
    1.9324    0.0429   -0.6889 N   0  0  0  0  0  0  0  0  0  0  0  0
    0.5376   -1.4446    1.0971 S   0  0  0  0  0  0  0  0  0  0  0  0
   -0.6935   -1.6434    0.1347 C   0  0  0  0  0  0  0  0  0  0  0  0
   -0.5002   -0.4569   -0.6567 C   0  0  1  0  0  0  0  0  0  0  0  0
   -1.4507    0.5269   -0.5057 O   0  0  0  0  0  0  0  0  0  0  0  0
   -0.8383    1.7111   -0.1891 C   0  0  0  0  0  0  0  0  0  0  0  0
    0.3251    1.2933    0.7315 C   0  0  0  0  0  3  0  0  0  0  0  0
  1  2  1  0
  1  3  1  0
  3  4  2  0
  4  5  1  0
  5  6  1  1
  6  7  1  0
  7  8  1  0
  8  1  1  0
  5  1  1  0
M  RAD  1   8   2
M  END
$$$$
