
     RDKit          2D

 76 76  0  0  0  0  0  0  0  0999 V2000
    5.2700    0.0000    0.0000 C   0  0  0  0  0  0  0  0  0  0  0  0
    5.0565   -1.4847    0.0000 C   0  0  0  0  0  0  0  0  0  0  0  0
    6.4958   -1.9073    0.0000 C   0  0  0  0  0  0  0  0  0  0  0  0
    4.4334   -2.8492    0.0000 C   0  0  0  0  0  0  0  0  0  0  0  0
    3.4511   -3.9828    0.0000 C   0  0  0  0  0  0  0  0  0  0  0  0
    2.1892   -4.7938    0.0000 C   0  0  0  0  0  0  0  0  0  0  0  0
    0.7500   -5.2164    0.0000 C   0  0  0  0  0  0  0  0  0  0  0  0
    0.9635   -6.7011    0.0000 C   0  0  0  0  0  0  0  0  0  0  0  0
   -0.7500   -5.2164    0.0000 C   0  0  0  0  0  3  0  0  0  0  0  0
   -2.1892   -4.7938    0.0000 C   0  0  0  0  0  0  0  0  0  0  0  0
   -3.4511   -3.9828    0.0000 C   0  0  0  0  0  0  0  0  0  0  0  0
   -4.4334   -2.8492    0.0000 C   0  0  0  0  0  0  0  0  0  0  0  0
   -5.6953   -3.6601    0.0000 C   0  0  0  0  0  0  0  0  0  0  0  0
   -5.0565   -1.4847    0.0000 C   0  0  0  0  0  3  0  0  0  0  0  0
   -5.2700    0.0000    0.0000 C   0  0  0  0  0  0  0  0  0  0  0  0
   -5.0565    1.4847    0.0000 C   0  0  0  0  0  0  0  0  0  0  0  0
   -4.4334    2.8492    0.0000 C   0  0  0  0  0  0  0  0  0  0  0  0
   -5.6953    3.6601    0.0000 C   0  0  0  0  0  0  0  0  0  0  0  0
   -7.0285    2.9728    0.0000 C   0  0  0  0  0  0  0  0  0  0  0  0
   -8.2904    3.7838    0.0000 C   0  0  0  0  0  0  0  0  0  0  0  0
   -8.2191    5.2821    0.0000 O   0  0  0  0  0  0  0  0  0  0  0  0
   -9.6237    3.0964    0.0000 C   0  0  0  0  0  0  0  0  0  0  0  0
  -10.8856    3.9074    0.0000 C   0  0  0  0  0  0  0  0  0  0  0  0
   -9.6951    1.5981    0.0000 C   0  0  0  0  0  0  0  0  0  0  0  0
  -11.0283    0.9108    0.0000 C   0  0  0  0  0  0  0  0  0  0  0  0
   -3.4511    3.9828    0.0000 C   0  0  0  0  0  0  0  0  0  0  0  0
   -4.4334    5.1164    0.0000 C   0  0  0  0  0  0  0  0  0  0  0  0
   -2.1892    4.7938    0.0000 C   0  0  0  0  0  0  0  0  0  0  0  0
   -0.7500    5.2164    0.0000 C   0  0  0  0  0  0  0  0  0  0  0  0
    0.7500    5.2164    0.0000 C   0  0  0  0  0  0  0  0  0  0  0  0
    0.9635    6.7011    0.0000 C   0  0  0  0  0  0  0  0  0  0  0  0
    2.1892    4.7938    0.0000 C   0  0  0  0  0  0  0  0  0  0  0  0
    3.4511    3.9828    0.0000 C   0  0  0  0  0  0  0  0  0  0  0  0
    4.4334    2.8492    0.0000 C   0  0  0  0  0  0  0  0  0  0  0  0
    5.6953    3.6601    0.0000 C   0  0  0  0  0  0  0  0  0  0  0  0
    5.0565    1.4847    0.0000 C   0  0  0  0  0  3  0  0  0  0  0  0
    6.4958    1.9073    0.0000 C   0  0  0  0  0  0  0  0  0  0  0  0
    7.5814    0.8722    0.0000 C   0  0  0  0  0  0  0  0  0  0  0  0
    9.0206    1.2948    0.0000 C   0  0  0  0  0  0  0  0  0  0  0  0
   10.1062    0.2597    0.0000 C   0  0  0  0  0  0  0  0  0  0  0  0
   11.5455    0.6823    0.0000 C   0  0  0  0  0  0  0  0  0  0  0  0
   12.6311   -0.3528    0.0000 C   0  0  0  0  0  0  0  0  0  0  0  0
   14.0703    0.0698    0.0000 C   0  0  0  0  0  0  0  0  0  0  0  0
   15.1559   -0.9653    0.0000 C   0  0  0  0  0  0  0  0  0  0  0  0
   14.4239    1.5275    0.0000 C   0  0  0  0  0  0  0  0  0  0  0  0
   15.8632    1.9501    0.0000 C   0  0  0  0  0  0  0  0  0  0  0  0
   16.2168    3.4078    0.0000 C   0  0  0  0  0  0  0  0  0  0  0  0
   17.6561    3.8304    0.0000 C   0  0  0  0  0  0  0  0  0  0  0  0
   18.0097    5.2881    0.0000 C   0  0  0  0  0  0  0  0  0  0  0  0
   19.4489    5.7107    0.0000 C   0  0  0  0  0  0  0  0  0  0  0  0
   19.8026    7.1684    0.0000 C   0  0  0  0  0  0  0  0  0  0  0  0
   20.5345    4.6756    0.0000 C   0  0  0  0  0  3  0  0  0  0  0  0
   21.9738    5.0982    0.0000 C   0  0  0  0  0  0  0  0  0  0  0  0
   23.0594    4.0631    0.0000 C   0  0  0  0  0  0  0  0  0  0  0  0
   24.4986    4.4857    0.0000 C   0  0  0  0  0  0  0  0  0  0  0  0
   22.7057    2.6054    0.0000 C   0  0  0  0  0  0  0  0  0  0  0  0
   23.7913    1.5702    0.0000 C   0  0  0  0  0  0  0  0  0  0  0  0
   23.4377    0.1125    0.0000 C   0  0  0  0  0  0  0  0  0  0  0  0
   24.5233   -0.9226    0.0000 C   0  0  0  0  0  0  0  0  0  0  0  0
   21.9985   -0.3101    0.0000 C   0  0  0  0  0  0  0  0  0  0  0  0
   21.6448   -1.7678    0.0000 C   0  0  0  0  0  0  0  0  0  0  0  0
   20.2056   -2.1904    0.0000 C   0  0  0  0  0  0  0  0  0  0  0  0
   19.8519   -3.6481    0.0000 C   0  0  0  0  0  0  0  0  0  0  0  0
   18.4127   -4.0707    0.0000 C   0  0  0  0  0  0  0  0  0  0  0  0
   18.0591   -5.5284    0.0000 C   0  0  0  0  0  0  0  0  0  0  0  0
   16.6198   -5.9510    0.0000 C   0  0  0  0  0  0  0  0  0  0  0  0
   16.2662   -7.4087    0.0000 C   0  0  0  0  0  0  0  0  0  0  0  0
   20.9375   -4.6832    0.0000 C   0  0  0  0  0  0  0  0  0  0  0  0
   22.3768   -4.2606    0.0000 C   0  0  0  0  0  0  0  0  0  0  0  0
   23.4624   -5.2957    0.0000 F   0  0  0  0  0  0  0  0  0  0  0  0
   20.5839   -6.1409    0.0000 C   0  0  0  0  0  0  0  0  0  0  0  0
   19.1447   -6.5635    0.0000 C   0  0  0  0  0  0  0  0  0  0  0  0
   21.6695   -7.1761    0.0000 C   0  0  0  0  0  0  0  0  0  0  0  0
   21.3159   -8.6338    0.0000 C   0  0  0  0  0  0  0  0  0  0  0  0
   22.4015   -9.6689    0.0000 O   0  0  0  0  0  1  0  0  0  0  0  0
   23.1087   -6.7535    0.0000 C   0  0  0  0  0  0  0  0  0  0  0  0
  1  2  1  0
  2  3  1  0
  2  4  1  0
  4  5  1  0
  5  6  1  0
  6  7  1  0
  7  8  1  1
  7  9  1  0
  9 10  1  0
 10 11  1  0
 11 12  1  0
 12 13  1  1
 12 14  1  0
 14 15  1  0
 15 16  1  0
 16 17  1  0
 17 18  1  1
 18 19  1  0
 19 20  2  3
 20 21  1  0
 20 22  1  0
 22 23  1  6
 22 24  1  0
 24 25  1  0
 17 26  1  0
 26 27  1  1
 26 28  1  0
 28 29  1  0
 29 30  1  0
 30 31  1  1
 30 32  1  0
 32 33  1  0
 33 34  1  0
 34 35  1  1
 34 36  1  0
 36 37  1  0
 37 38  1  0
 38 39  1  0
 39 40  1  0
 40 41  1  0
 41 42  1  0
 42 43  1  0
 43 44  1  6
 43 45  1  0
 45 46  1  0
 46 47  1  0
 47 48  1  0
 48 49  1  0
 49 50  1  0
 50 51  1  0
 50 52  1  0
 52 53  1  0
 53 54  1  0
 54 55  1  1
 54 56  1  0
 56 57  1  0
 57 58  1  0
 58 59  1  0
 58 60  1  0
 60 61  1  0
 61 62  1  0
 62 63  1  0
 63 64  1  0
 64 65  1  0
 65 66  1  0
 66 67  1  0
 63 68  1  0
 68 69  1  6
 69 70  1  0
 68 71  1  0
 71 72  1  6
 71 73  1  0
 73 74  1  0
 74 75  1  0
 73 76  1  1
 36  1  1  0
M  CHG  1  75  -1
M  RAD  4   9   2  14   2  36   2  52   2
M  END
$$$$
