
     RDKit          3D

 42 43  0  0  0  0  0  0  0  0999 V2000
    8.8761    2.1861    0.4922 O   0  0  0  0  0  0  0  0  0  0  0  0
    8.2869    3.1685    0.0201 N   0  0  0  0  0  4  0  0  0  0  0  0
    8.8783    4.3978    0.0871 O   0  0  0  0  0  0  0  0  0  0  0  0
    7.0136    3.0181   -0.5825 C   0  0  0  0  0  0  0  0  0  0  0  0
    6.3609    1.8797   -0.4615 C   0  0  0  0  0  0  0  0  0  0  0  0
    6.9412    0.7979    0.2793 C   0  0  0  0  0  0  0  0  0  0  0  0
    6.3785   -0.3789    0.4629 C   0  0  0  0  0  0  0  0  0  0  0  0
    5.0438   -0.5746   -0.1535 C   0  0  0  0  0  0  0  0  0  0  0  0
    5.2119   -0.9968   -1.6083 C   0  0  0  0  0  2  0  0  0  0  0  0
    4.2985    0.7339   -0.0388 C   0  0  0  0  0  3  0  0  0  0  0  0
    2.9164    0.6522   -0.6388 C   0  0  0  0  0  3  0  0  0  0  0  0
    1.9656    0.2280    0.4627 C   0  0  0  0  0  3  0  0  0  0  0  0
    1.5901   -1.2150    0.3715 C   0  0  0  0  0  3  0  0  0  0  0  0
   -0.2021   -1.3855    0.5248 S   0  0  0  0  0  0  0  0  0  0  0  0
   -0.9901    0.2555    0.7440 C   0  0  0  0  0  0  0  0  0  0  0  0
   -0.7838    0.9870   -0.4930 N   0  0  0  0  0  0  0  0  0  0  0  0
   -2.4844    0.0419    0.8784 C   0  0  2  0  0  0  0  0  0  0  0  0
   -2.9143   -0.8173   -0.2855 C   0  0  2  0  0  0  0  0  0  0  0  0
   -2.6529   -0.2710   -1.5151 O   0  0  0  0  0  0  0  0  0  0  0  0
   -4.3675   -1.1720   -0.0918 C   0  0  1  0  0  0  0  0  0  0  0  0
   -4.8975   -2.0361   -1.2101 C   0  0  0  0  0  0  0  0  0  0  0  0
   -4.6274   -1.7797    1.2634 C   0  0  0  0  0  3  0  0  0  0  0  0
   -6.0786   -2.2103    1.2995 C   0  0  0  0  0  3  0  0  0  0  0  0
   -6.9996   -0.9934    1.1877 C   0  0  0  0  0  0  0  0  0  0  0  0
   -7.0599   -0.5047   -0.2484 C   0  0  0  0  0  0  0  0  0  0  0  0
   -6.6464   -1.1872   -1.4458 S   0  0  0  0  0  0  0  0  0  0  0  0
   -7.7363   -3.3161   -1.1998 S   0  0  0  0  0  0  0  0  0  0  0  0
   -8.3737   -3.1417   -2.8894 C   0  0  0  0  0  2  0  0  0  0  0  0
   -3.0869    1.2743    0.9156 O   0  0  0  0  0  0  0  0  0  0  0  0
   -4.4523    1.2545    1.0366 C   0  0  0  0  0  3  0  0  0  0  0  0
   -4.9429    2.3976    1.6609 O   0  0  0  0  0  0  0  0  0  0  0  0
   -6.0199    2.8784    0.9058 C   0  0  0  0  0  0  0  0  0  0  0  0
   -6.5445    4.0303    1.4999 O   0  0  0  0  0  0  0  0  0  0  0  0
   -5.6217    3.1600   -0.4891 C   0  0  0  0  0  0  0  0  0  0  0  0
   -5.0786    2.1399   -1.2445 O   0  0  0  0  0  1  0  0  0  0  0  0
   -5.7579    4.2873   -1.0117 O   0  0  0  0  0  0  0  0  0  0  0  0
    7.2991   -1.5680    1.4246 S   0  0  0  0  0  0  0  0  0  0  0  0
    7.0470   -3.1959    0.6613 C   0  0  0  0  0  3  0  0  0  0  0  0
    5.5982   -3.6408    0.7733 C   0  0  0  0  0  0  0  0  0  0  0  0
    4.7075   -2.8079   -0.1337 C   0  0  0  0  0  0  0  0  0  0  0  0
    4.3381   -1.6056    0.4699 O   0  0  0  0  0  0  0  0  0  0  0  0
    5.5676   -4.9702    0.3072 O   0  0  0  0  0  1  0  0  0  0  0  0
  1  2  2  0
  2  3  1  0
  2  4  1  0
  4  5  2  3
  5  6  1  0
  6  7  2  3
  7  8  1  0
  8  9  1  0
  8 10  1  0
 10 11  1  0
 11 12  1  0
 12 13  1  0
 13 14  1  0
 14 15  1  0
 15 16  1  0
 15 17  1  0
 17 18  1  0
 18 19  1  6
 18 20  1  0
 20 21  1  6
 20 22  1  0
 22 23  1  0
 23 24  1  0
 24 25  1  0
 25 26  1  0
 26 27  1  0
 27 28  1  0
 17 29  1  6
 29 30  1  0
 30 31  1  0
 31 32  1  0
 32 33  1  0
 32 34  1  0
 34 35  1  0
 34 36  2  0
  7 37  1  0
 37 38  1  0
 38 39  1  0
 39 40  1  0
 40 41  1  0
 39 42  1  0
 41  8  1  0
 26 21  1  0
M  RAD  8   9   3  10   2  11   2  12   2  13   2  22   2  23   2  28   3
M  CHG  3   2   1  35  -1  42  -1
M  RAD  2  30   2  38   2
M  END
$$$$
