
     RDKit          3D

 58 67  0  0  0  0  0  0  0  0999 V2000
   -6.5096   -0.2155   -3.9368 C   0  0  0  0  0  0  0  0  0  0  0  0
   -6.4260   -0.2281   -2.4236 C   0  0  2  0  0  0  0  0  0  0  0  0
   -6.2759   -1.7013   -2.0260 C   0  0  0  0  0  0  0  0  0  0  0  0
   -7.3802   -2.4735   -2.6794 C   0  0  0  0  0  0  0  0  0  0  0  0
   -8.7030   -1.8090   -2.5553 C   0  0  0  0  0  0  0  0  0  0  0  0
   -9.6946   -2.5071   -2.5248 O   0  0  0  0  0  0  0  0  0  0  0  0
   -8.8660   -0.3332   -2.4671 C   0  0  0  0  0  0  0  0  0  0  0  0
   -7.6711    0.2767   -1.7657 C   0  0  2  0  0  0  0  0  0  0  0  0
   -7.8216    1.7650   -1.7937 C   0  0  0  0  0  0  0  0  0  0  0  0
   -6.5459    2.4689   -1.3312 C   0  0  0  0  0  0  0  0  0  0  0  0
   -5.4335    2.0069   -2.2458 C   0  0  0  0  0  3  0  0  0  0  0  0
   -5.1933    0.5362   -1.9843 C   0  0  1  0  0  0  0  0  0  0  0  0
   -4.8807    0.2641   -0.5245 C   0  0  0  0  0  0  0  0  0  0  0  0
   -3.6606    1.0392   -0.1434 C   0  0  0  0  0  0  0  0  0  0  0  0
   -3.2791    0.8247    1.2997 C   0  0  0  0  0  0  0  0  0  0  0  0
   -4.3349    1.2306    2.2718 C   0  0  1  0  0  0  0  0  0  0  0  0
   -5.1089    2.4566    1.8404 C   0  0  0  0  0  2  0  0  0  0  0  0
   -5.4868   -0.0592    2.7127 S   0  0  0  0  0  0  0  0  0  0  0  0
   -4.8020   -1.6012    2.8397 O   0  0  0  0  0  0  0  0  0  0  0  0
   -3.6660   -1.6622    3.6161 C   0  0  0  0  0  0  0  0  0  0  0  0
   -2.5847   -0.7665    3.0042 C   0  0  0  0  0  0  0  0  0  0  0  0
   -2.9119   -0.6247    1.5489 C   0  0  2  0  0  0  0  0  0  0  0  0
   -1.5839   -0.7744    0.8757 C   0  0  0  0  0  0  0  0  0  0  0  0
   -0.9344    0.5860    0.9947 C   0  0  0  0  0  0  0  0  0  0  0  0
   -1.9529    1.5133    1.5850 C   0  0  0  0  0  3  0  0  0  0  0  0
   -1.8455    1.6350    3.0894 C   0  0  0  0  0  0  0  0  0  0  0  0
   -2.6005    0.5206    3.7645 C   0  0  0  0  0  0  0  0  0  0  0  0
   -2.0906    0.2476    5.1632 C   0  0  0  0  0  0  0  0  0  0  0  0
   -3.0424   -0.7811    5.7789 C   0  0  0  0  0  0  0  0  0  0  0  0
   -0.8917   -1.6756    1.6809 O   0  0  0  0  0  0  0  0  0  0  0  0
   -1.2455   -1.4400    2.9847 C   0  0  1  0  0  0  0  0  0  0  0  0
   -0.2064   -0.7487    3.7947 C   0  0  0  0  0  0  0  0  0  0  0  0
    0.2660    0.5468    3.2065 C   0  0  0  0  0  3  0  0  0  0  0  0
    0.3624    0.5370    1.7205 C   0  0  0  0  0  0  0  0  0  0  0  0
    1.1664    1.5987    1.3125 O   0  0  0  0  0  0  0  0  0  0  0  0
    2.6742    1.6003    2.1114 S   0  0  0  0  0  0  0  0  0  0  0  0
    3.6205    0.1111    1.9112 C   0  0  0  0  0  0  0  0  0  0  0  0
    4.1499   -0.1523    0.5598 C   0  0  0  0  0  0  0  0  0  0  0  0
    3.2037   -0.2916   -0.5563 C   0  0  0  0  0  0  0  0  0  0  0  0
    2.4553    0.8300   -0.7568 O   0  0  0  0  0  0  0  0  0  0  0  0
    2.3137    1.0739   -2.0993 C   0  0  0  0  0  3  0  0  0  0  0  0
    3.5750    0.4807   -2.7307 C   0  0  0  0  0  0  0  0  0  0  0  0
    3.7928   -0.7222   -1.8513 C   0  0  0  0  0  0  0  0  0  0  0  0
    5.1129   -1.1256   -1.7724 O   0  0  0  0  0  0  0  0  0  0  0  0
    5.9773   -0.1703   -1.3178 C   0  0  0  0  0  0  0  0  0  0  0  0
    6.0663    1.0779   -2.1195 C   0  0  0  0  0  0  0  0  0  0  0  0
    6.3069    0.8829   -3.5796 C   0  0  0  0  0  0  0  0  0  0  0  0
    7.7581    0.4765   -3.8788 C   0  0  0  0  0  0  0  0  0  0  0  0
    7.8277   -0.9830   -3.4942 C   0  0  0  0  0  0  0  0  0  0  0  0
    7.7321   -1.5195   -2.2780 C   0  0  0  0  0  0  0  0  0  0  0  0
    7.3099   -0.8136   -1.0121 C   0  0  0  0  0  0  0  0  0  0  0  0
    7.2600   -1.6853    0.0409 O   0  0  0  0  0  0  0  0  0  0  0  0
    8.4799   -2.2777    0.2573 C   0  0  0  0  0  0  0  0  0  0  0  0
    9.4959   -1.2183    0.5591 C   0  0  0  0  0  0  0  0  0  0  0  0
   10.8647   -1.8334    0.8060 C   0  0  0  0  0  0  0  0  0  0  0  0
    8.2256    0.2237   -0.8307 O   0  0  0  0  0  0  0  0  0  0  0  0
    9.0401    0.3838   -1.8272 O   0  0  0  0  0  0  0  0  0  0  0  0
    8.5928    1.2150   -2.8241 C   0  0  0  0  0  3  0  0  0  0  0  0
  2  1  1  6
  2  3  1  0
  3  4  1  0
  4  5  1  0
  5  6  2  0
  5  7  1  0
  8  7  1  6
  8  9  1  0
  9 10  1  0
 10 11  1  0
 11 12  1  0
 12 13  1  1
 13 14  1  0
 14 15  1  0
 15 16  1  0
 16 17  1  6
 16 18  1  0
 18 19  1  0
 19 20  1  0
 20 21  1  0
 21 22  1  0
 22 23  1  6
 23 24  1  0
 24 25  1  0
 25 26  1  0
 26 27  1  0
 27 28  1  0
 28 29  1  0
 23 30  1  0
 30 31  1  0
 31 32  1  6
 32 33  1  0
 33 34  1  0
 34 35  1  0
 35 36  1  0
 36 37  1  0
 37 38  1  0
 38 39  1  0
 39 40  1  0
 40 41  1  0
 41 42  1  0
 42 43  1  0
 43 44  1  0
 44 45  1  0
 45 46  1  0
 46 47  1  0
 47 48  1  0
 48 49  1  0
 49 50  2  0
 50 51  1  0
 51 52  1  0
 52 53  1  0
 53 54  1  0
 54 55  1  0
 51 56  1  0
 56 57  1  0
 57 58  1  0
  8  2  1  0
 12  2  1  0
 22 15  1  0
 25 15  1  0
 27 21  1  0
 31 21  1  0
 34 24  1  0
 43 39  1  0
 51 45  1  0
 58 48  1  0
M  RAD  6  11   2  17   3  25   2  33   2  41   2  58   2
M  END
$$$$
