
     RDKit          2D

 36 40  0  0  0  0  0  0  0  0999 V2000
    0.3943    7.4616    0.0000 C   0  0  0  0  0  0  0  0  0  0  0  0
    1.5090    6.4579    0.0000 C   0  0  0  0  0  0  0  0  0  0  0  0
    2.7225    7.3395    0.0000 C   0  0  0  0  0  0  0  0  0  0  0  0
    2.1191    5.0875    0.0000 C   0  0  0  0  0  3  0  0  0  0  0  0
    2.1191    3.5875    0.0000 C   0  0  0  0  0  0  0  0  0  0  0  0
    1.5090    2.2172    0.0000 C   0  0  0  0  0  0  0  0  0  0  0  0
    0.3943    1.2135    0.0000 C   0  0  0  0  0  3  0  0  0  0  0  0
   -1.0323    0.7500    0.0000 C   0  0  0  0  0  0  0  0  0  0  0  0
   -2.1470   -0.2537    0.0000 C   0  0  0  0  0  0  0  0  0  0  0  0
   -1.8351   -1.7209    0.0000 C   0  0  0  0  0  0  0  0  0  0  0  0
   -0.4086   -2.1844    0.0000 C   0  0  0  0  0  3  0  0  0  0  0  0
   -0.0967   -3.6517    0.0000 C   0  0  0  0  0  3  0  0  0  0  0  0
    1.3299   -4.1152    0.0000 O   0  0  0  0  0  0  0  0  0  0  0  0
    1.2760    0.0000    0.0000 C   0  0  0  0  0  0  0  0  0  0  0  0
    0.3943   -1.2135    0.0000 C   0  0  0  0  0  3  0  0  0  0  0  0
   -1.0323   -0.7500    0.0000 C   0  0  0  0  0  0  0  0  0  0  0  0
   -1.3152   -2.5068    0.0000 C   0  0  0  0  0  0  0  0  0  0  0  0
   -2.7292   -3.0075    0.0000 C   0  0  0  0  0  3  0  0  0  0  0  0
   -4.0831   -2.3618    0.0000 N   0  0  0  0  0  0  0  0  0  0  0  0
   -4.5838   -0.9478    0.0000 C   0  0  0  0  0  0  0  0  0  0  0  0
   -6.0817   -0.8693    0.0000 C   0  0  0  0  0  0  0  0  0  0  0  0
   -3.9380    0.4061    0.0000 C   0  0  0  0  0  0  0  0  0  0  0  0
   -2.5241    0.9068    0.0000 C   0  0  0  0  0  0  0  0  0  0  0  0
   -3.8231    1.6568    0.0000 C   0  0  0  0  0  0  0  0  0  0  0  0
   -4.7048    2.8703    0.0000 C   0  0  0  0  0  0  0  0  0  0  0  0
   -5.0167    4.3375    0.0000 C   0  0  0  0  0  0  0  0  0  0  0  0
   -4.7048    5.8048    0.0000 C   0  0  0  0  0  0  0  0  0  0  0  0
   -3.8231    7.0183    0.0000 C   0  0  0  0  0  0  0  0  0  0  0  0
   -2.5241    7.7683    0.0000 C   0  0  0  0  0  0  0  0  0  0  0  0
   -1.0323    7.9251    0.0000 C   0  0  0  0  0  0  0  0  0  0  0  0
   -1.0323    9.4251    0.0000 C   0  0  0  0  0  0  0  0  0  0  0  0
    0.3943    9.8886    0.0000 C   0  0  0  0  0  0  0  0  0  0  0  0
    1.2760    8.6751    0.0000 C   0  0  0  0  0  0  0  0  0  0  0  0
   -0.1506    8.2116    0.0000 C   0  0  0  0  0  0  0  0  0  0  0  0
    0.8578   11.3152    0.0000 C   0  0  0  0  0  0  0  0  0  0  0  0
    2.3250   11.6271    0.0000 C   0  0  0  0  0  2  0  0  0  0  0  0
  1  2  2  3
  2  3  1  0
  2  4  1  0
  4  5  1  0
  5  6  1  0
  6  7  1  0
  7  8  1  0
  8  9  1  0
  9 10  1  0
 10 11  1  0
 11 12  1  0
 12 13  1  0
  7 14  1  0
 14 15  1  0
 16 15  1  1
 16 17  1  0
 17 18  1  0
 18 19  1  0
 19 20  1  0
 20 21  1  1
 20 22  1  0
 23 22  1  1
 23 24  1  0
 24 25  1  0
 25 26  2  3
 26 27  1  0
 27 28  1  0
 28 29  2  3
 30 29  1  6
 30 31  1  0
 31 32  1  0
 33 32  1  1
 33 34  1  0
 32 35  1  0
 35 36  1  0
 30  1  1  0
 33  1  1  0
 16  8  1  0
 23  8  1  0
 31 34  2  0
M  RAD  7   4   2   7   2  11   2  12   2  15   2  18   2  36   3
M  END
$$$$
