
     RDKit          3D

 49 50  0  0  0  0  0  0  0  0999 V2000
    2.8041   -2.6554   -0.2924 O   0  0  0  0  0  0  0  0  0  0  0  0
    3.5643   -3.7379    0.0718 C   0  0  0  0  0  0  0  0  0  0  0  0
    4.4843   -3.4729    1.2327 C   0  0  0  0  0  3  0  0  0  0  0  0
    5.6558   -2.5992    0.8417 C   0  0  0  0  0  0  0  0  0  0  0  0
    5.1650   -1.2601    0.3272 C   0  0  0  0  0  3  0  0  0  0  0  0
    6.2775   -0.4359   -0.0420 N   0  0  0  0  0  3  0  0  0  0  0  0
    7.2025   -0.8508   -0.8269 C   0  0  0  0  0  0  0  0  0  0  0  0
    8.1742   -1.4029   -1.4273 N   0  0  0  0  0  3  0  0  0  0  0  0
    8.7767   -2.5401   -0.9131 O   0  0  0  0  0  0  0  0  0  0  0  0
    9.8372   -2.3774   -0.0317 N   0  0  0  0  0  0  0  0  0  0  0  0
   10.5651   -1.1383   -0.0313 C   0  0  0  0  0  0  0  0  0  0  0  0
   10.7636   -0.5249    1.1284 C   0  0  0  0  0  0  0  0  0  0  0  0
   11.6459    1.0012    1.2302 S   0  0  0  0  0  0  0  0  0  0  0  0
   11.7341    1.8419   -0.3814 C   0  0  0  0  0  3  0  0  0  0  0  0
   12.4955    3.1171   -0.1973 C   0  0  0  0  0  0  0  0  0  0  0  0
   13.9661    2.8993   -0.4174 C   0  0  0  0  0  0  0  0  0  0  0  0
   14.7510    4.1905   -0.2327 C   0  0  0  0  0  3  0  0  0  0  0  0
   16.1068    3.9899   -0.4357 O   0  0  0  0  0  0  0  0  0  0  0  0
   16.7163    5.3682   -1.2676 S   0  0  0  0  0  0  0  0  0  0  0  0
    3.8036   -2.8372    2.3427 N   0  0  0  0  0  0  0  0  0  0  0  0
    3.1808   -1.6153    1.8246 C   0  0  0  0  0  3  0  0  0  0  0  0
    2.3001   -2.0197    0.7675 N   0  0  0  0  0  0  0  0  0  0  0  0
    0.9281   -1.7402    0.8670 C   0  0  0  0  0  0  0  0  0  0  0  0
   -0.0350   -2.4959    0.3790 C   0  0  0  0  0  0  0  0  0  0  0  0
    0.2000   -3.7584   -0.3501 C   0  0  0  0  0  0  0  0  0  0  0  0
   -0.3752   -3.5955   -1.6933 N   0  0  0  0  0  0  0  0  0  0  0  0
   -1.3448   -2.0780    0.5625 O   0  0  0  0  0  0  0  0  0  0  0  0
   -2.2717   -2.1621   -0.4496 N   0  0  0  0  0  0  0  0  0  0  0  0
   -3.5116   -1.9369   -0.2989 C   0  0  0  0  0  0  0  0  0  0  0  0
   -4.4247   -2.0537   -1.4475 C   0  0  0  0  0  3  0  0  0  0  0  0
   -5.4307   -0.9472   -1.4009 C   0  0  0  0  0  0  0  0  0  0  0  0
   -5.2402   -0.0722   -0.2575 N   0  0  0  0  0  0  0  0  0  0  0  0
   -6.1637    0.9142   -0.2462 O   0  0  0  0  0  0  0  0  0  0  0  0
   -5.9764    1.7056    0.8133 O   0  0  0  0  0  0  0  0  0  0  0  0
   -6.7158    1.5118    1.9561 N   0  0  0  0  0  0  0  0  0  0  0  0
   -7.7185    0.7348    1.9291 N   0  0  0  0  0  0  0  0  0  0  0  0
   -8.0788    0.0666    0.7264 C   0  0  0  0  0  0  0  0  0  0  0  0
   -8.9350    0.5937   -0.1328 C   0  0  0  0  0  0  0  0  0  0  0  0
   -9.3162   -0.1048   -1.3972 C   0  0  0  0  0  0  0  0  0  0  0  0
  -10.7517    0.2020   -1.6747 C   0  0  0  0  0  0  0  0  0  0  0  0
  -11.5189    0.4121   -0.6566 N   0  0  0  0  0  3  0  0  0  0  0  0
  -12.8509    0.6985   -0.8724 N   0  0  0  0  0  0  0  0  0  0  0  0
  -13.4795    1.8683   -0.3300 C   0  0  0  0  0  0  0  0  0  0  0  0
  -12.8919    2.6263    0.5301 C   0  0  0  0  0  0  0  0  0  0  0  0
  -12.6588    3.8935    0.3211 C   0  0  0  0  0  0  0  0  0  0  0  0
  -11.7234    4.2308   -0.6740 N   0  0  0  0  0  0  0  0  0  0  0  0
  -10.3601    3.9496   -0.6143 N   0  0  0  0  0  0  0  0  0  0  0  0
   -9.8015    2.7036   -0.8266 N   0  0  0  0  0  0  0  0  0  0  0  0
   -9.5235    1.8937    0.1634 C   0  0  0  0  0  0  0  0  0  0  0  0
  1  2  1  0
  2  3  1  0
  3  4  1  0
  4  5  1  0
  5  6  1  0
  6  7  2  0
  7  8  2  0
  8  9  1  0
  9 10  1  0
 10 11  1  0
 11 12  2  3
 12 13  1  0
 13 14  1  0
 14 15  1  0
 15 16  1  0
 16 17  1  0
 17 18  1  0
 18 19  1  0
  3 20  1  0
 20 21  1  0
 21 22  1  0
 22 23  1  0
 23 24  2  3
 24 25  1  0
 25 26  1  0
 24 27  1  0
 27 28  1  0
 28 29  2  3
 29 30  1  0
 30 31  1  0
 31 32  1  0
 32 33  1  0
 33 34  1  0
 34 35  1  0
 35 36  2  0
 36 37  1  0
 37 38  2  0
 38 39  1  0
 39 40  1  0
 40 41  2  3
 41 42  1  0
 42 43  1  0
 43 44  2  0
 44 45  2  0
 45 46  1  0
 46 47  1  0
 47 48  1  0
 48 49  2  3
 22  1  1  0
 49 38  1  0
M  RAD  8   3   2   5   2   6   2   8   2  14   2  17   2  21   2  30   2
M  CHG  3   6   1   8   1  41   1
M  RAD  1  41   2
M  END
$$$$
