
     RDKit          3D

 57 59  0  0  0  0  0  0  0  0999 V2000
   -7.6024    2.9001   -4.6812 N   0  0  0  0  0  0  0  0  0  0  0  0
   -6.5607    2.5072   -3.7579 C   0  0  0  0  0  0  0  0  0  0  0  0
   -6.1672    1.3154   -3.6902 O   0  0  0  0  0  0  0  0  0  0  0  0
   -5.9387    3.4522   -2.8851 N   0  0  0  0  0  0  0  0  0  0  0  0
   -4.9263    3.0738   -2.0011 C   0  0  0  0  0  0  0  0  0  0  0  0
   -4.3033    2.1011   -1.7245 C   0  0  0  0  0  0  0  0  0  0  0  0
   -3.5455    1.0678   -1.3332 N   0  0  0  0  0  0  0  0  0  0  0  0
   -2.6879    0.3103   -2.1314 N   0  0  0  0  0  2  0  0  0  0  0  0
   -3.2433   -1.0458   -1.7705 C   0  0  0  0  0  0  0  0  0  0  0  0
   -3.6587   -1.9614   -2.4824 C   0  0  0  0  0  0  0  0  0  0  0  0
   -4.1163   -2.9801   -3.1684 N   0  0  0  0  0  0  0  0  0  0  0  0
   -5.2975   -3.5441   -2.9753 C   0  0  0  0  0  0  0  0  0  0  0  0
   -6.1498   -2.9783   -1.9126 C   0  0  0  0  0  0  0  0  0  0  0  0
   -6.7467   -1.8162   -2.1302 C   0  0  0  0  0  0  0  0  0  0  0  0
   -7.6096   -1.1968   -1.0895 C   0  0  0  0  0  0  0  0  0  0  0  0
   -7.1570   -0.0002   -0.6253 C   0  0  0  0  0  0  0  0  0  0  0  0
   -7.9258    0.6980    0.4100 C   0  0  0  0  0  0  0  0  0  0  0  0
   -6.9204    1.4822    1.2846 C   0  0  0  0  0  0  0  0  0  0  0  0
   -5.6492    1.5465    0.4612 C   0  0  0  0  0  0  0  0  0  0  0  0
   -4.7351    0.5878    0.7237 C   0  0  0  0  0  0  0  0  0  0  0  0
   -3.4304    0.5101   -0.0009 C   0  0  0  0  0  0  0  0  0  0  0  0
   -3.1395   -0.9661   -0.2903 C   0  0  0  0  0  0  0  0  0  0  0  0
   -4.2041   -1.7902    0.3482 C   0  0  0  0  0  0  0  0  0  0  0  0
   -4.1647   -1.7507    1.8397 C   0  0  0  0  0  0  0  0  0  0  0  0
   -5.0720   -2.1168    2.5450 N   0  0  0  0  0  0  0  0  0  0  0  0
   -6.3506   -2.6482    2.4760 C   0  0  0  0  0  0  0  0  0  0  0  0
   -6.6663   -3.6499    1.3416 C   0  0  0  0  0  0  0  0  0  0  0  0
   -7.5168   -1.7173    2.7424 C   0  0  0  0  0  3  0  0  0  0  0  0
   -7.2120   -2.7948    3.7129 C   0  0  0  0  0  0  0  0  0  0  0  0
   -6.5671   -2.4053    4.9722 N   0  0  0  0  0  0  0  0  0  0  0  0
   -2.3352    1.1380    0.7381 C   0  0  0  0  0  0  0  0  0  0  0  0
   -1.1480    0.6808    0.9545 C   0  0  0  0  0  0  0  0  0  0  0  0
   -0.6222   -0.5440    0.5305 N   0  0  0  0  0  0  0  0  0  0  0  0
    0.6692   -0.8985    1.0481 N   0  0  0  0  0  0  0  0  0  0  0  0
    1.5255    0.0823    1.2246 C   0  0  0  0  0  0  0  0  0  0  0  0
    1.1922    1.3662    0.9284 C   0  0  0  0  0  0  0  0  0  0  0  0
    1.6351    2.5003    0.9400 N   0  0  0  0  0  0  0  0  0  0  0  0
    2.9791    2.7926    1.3974 C   0  0  0  0  0  0  0  0  0  0  0  0
    3.9561    2.7022    0.7590 C   0  0  0  0  0  0  0  0  0  0  0  0
    5.1881    2.6534    0.1620 C   0  0  0  0  0  0  0  0  0  0  0  0
    5.6889    1.2885   -0.3346 C   0  0  0  0  0  3  0  0  0  0  0  0
    5.7925    0.4393    0.8890 C   0  0  0  0  0  0  0  0  0  0  0  0
    5.3947   -0.7728    0.8745 N   0  0  0  0  0  0  0  0  0  0  0  0
    4.8316   -1.3511   -0.3377 C   0  0  0  0  0  0  0  0  0  0  0  0
    4.4663   -2.8178   -0.0966 C   0  0  0  0  0  0  0  0  0  0  0  0
    6.3367    0.9781    2.0985 N   0  0  0  0  0  0  0  0  0  0  0  0
    6.8022    0.1564    3.0731 O   0  0  0  0  0  0  0  0  0  0  0  0
    7.7094   -0.6689    2.4572 N   0  0  0  0  0  0  0  0  0  0  0  0
    8.1643   -0.0217    1.2262 C   0  0  0  0  0  0  0  0  0  0  0  0
    9.1540   -0.9657    0.5987 C   0  0  0  0  0  0  0  0  0  0  0  0
    9.6723   -0.3747   -0.6699 C   0  0  0  0  0  0  0  0  0  0  0  0
   10.3368    0.9486   -0.3408 C   0  0  0  0  0  0  0  0  0  0  0  0
   11.6247    1.1346   -0.5839 C   0  0  0  0  0  0  0  0  0  0  0  0
   12.4418    0.1005   -1.1559 C   0  0  0  0  0  0  0  0  0  0  0  0
   13.7114    0.2989   -1.3890 C   0  0  0  0  0  0  0  0  0  0  0  0
   14.4148    1.4911   -1.1206 N   0  0  0  0  0  3  0  0  0  0  0  0
   15.6824    1.4733   -1.1099 N   0  0  0  0  0  0  0  0  0  0  0  0
  1  2  1  0
  2  3  2  0
  2  4  1  0
  4  5  1  0
  5  6  2  3
  6  7  1  0
  7  8  1  0
  8  9  1  0
  9 10  2  3
 10 11  1  0
 11 12  2  3
 12 13  1  0
 13 14  2  3
 14 15  1  0
 15 16  2  3
 16 17  1  0
 17 18  1  0
 18 19  1  0
 19 20  2  3
  7 21  1  0
 21 22  1  0
 22 23  1  0
 23 24  1  0
 24 25  2  3
 25 26  1  0
 26 27  1  0
 26 28  1  0
 28 29  1  0
 29 30  1  0
 21 31  1  0
 31 32  2  3
 32 33  1  0
 33 34  1  0
 34 35  2  3
 35 36  1  0
 36 37  2  3
 37 38  1  0
 38 39  2  3
 39 40  1  0
 40 41  1  0
 41 42  1  0
 42 43  2  3
 43 44  1  0
 44 45  1  0
 42 46  1  0
 46 47  1  0
 47 48  1  0
 48 49  1  0
 49 50  1  0
 50 51  1  0
 51 52  1  0
 52 53  2  3
 53 54  1  0
 54 55  2  3
 55 56  1  0
 56 57  2  0
 22  9  1  0
 21 20  1  0
 29 26  1  0
M  CHG  2   8   1  56   1
M  RAD  4   8   3  28   2  41   2  56   2
M  END
$$$$
