
     RDKit          3D

 33 36  0  0  0  0  0  0  0  0999 V2000
    2.9475    0.5423    0.3472 C   0  0  0  0  0  0  0  0  0  0  0  0
    1.7679    1.0049    0.5205 C   0  0  0  0  0  0  0  0  0  0  0  0
    0.7862    0.1659    1.2778 C   0  0  0  0  0  0  0  0  0  0  0  0
   -0.4455    1.2192    2.0898 S   0  0  0  0  0  0  0  0  0  0  0  0
   -2.0250    0.3963    1.9814 C   0  0  0  0  0  0  0  0  0  0  0  0
   -3.2227    1.1860    1.6745 C   0  0  0  0  0  0  0  0  0  0  0  0
   -3.2678    1.6755    0.2686 C   0  0  0  0  0  0  0  0  0  0  0  0
   -2.0920    1.3185   -0.5676 C   0  0  0  0  0  0  0  0  0  0  0  0
   -2.1593   -0.1650   -0.8693 C   0  0  0  0  0  0  0  0  0  0  0  0
   -3.9621   -0.3542   -1.1739 S   0  0  0  0  0  0  0  0  0  0  0  0
   -4.5241    1.2490   -0.4748 C   0  0  1  0  0  0  0  0  0  0  0  0
   -5.6065    0.9983    0.5526 C   0  0  0  0  0  0  0  0  0  0  0  0
   -6.4192   -0.1126    0.2146 O   0  0  0  0  0  0  0  0  0  0  0  0
   -6.7534   -1.0148    1.2022 C   0  0  0  0  0  0  0  0  0  0  0  0
   -5.9209   -1.3742    2.1662 C   0  0  0  0  0  0  0  0  0  0  0  0
   -4.5587   -0.8196    2.2429 C   0  0  0  0  0  0  0  0  0  0  0  0
   -3.4795   -1.5674    2.0733 C   0  0  0  0  0  0  0  0  0  0  0  0
   -2.1596   -0.9161    2.1697 C   0  0  0  0  0  0  0  0  0  0  0  0
   -1.2561   -0.4087   -2.4457 S   0  0  0  0  0  0  0  0  0  0  0  0
    0.2403    0.5331   -2.4793 C   0  0  0  0  0  0  0  0  0  0  0  0
    1.3705   -0.0638   -2.5775 N   0  0  0  0  0  0  0  0  0  0  0  0
    1.3998   -1.4529   -2.6564 N   0  0  0  0  0  0  0  0  0  0  0  0
    2.1048   -2.0854   -1.7839 C   0  0  0  0  0  0  0  0  0  0  0  0
    2.8337   -1.3492   -0.7643 C   0  0  0  0  0  0  0  0  0  0  0  0
    3.7999   -0.2609   -0.7459 S   0  0  0  0  0  0  0  0  0  0  0  0
    5.4891   -0.4852   -0.1195 S   0  0  0  0  0  0  0  0  0  0  0  0
    6.1499   -0.5276    1.1875 C   0  0  0  0  0  0  0  0  0  0  0  0
    5.7721   -0.4121    2.5775 C   0  0  0  0  0  0  0  0  0  0  0  0
    4.6215   -0.2234    2.9946 O   0  0  0  0  0  0  0  0  0  0  0  0
    3.8575    1.5144   -1.4393 S   0  0  0  0  0  0  0  0  0  0  0  0
    5.0005    1.3957   -2.6760 O   0  0  0  0  0  0  0  0  0  0  0  0
    5.4429    0.1203   -2.5784 N   0  0  0  0  0  0  0  0  0  0  0  0
    4.2686   -0.5351   -2.1888 N   0  0  0  0  0  0  0  0  0  0  0  0
  1  2  2  0
  2  3  1  0
  3  4  1  0
  4  5  1  0
  5  6  1  0
  6  7  1  0
  7  8  1  0
  8  9  1  0
  9 10  1  0
 10 11  1  0
 11 12  1  1
 12 13  1  0
 13 14  1  0
 14 15  2  0
 15 16  1  0
 16 17  2  0
 17 18  1  0
  9 19  1  0
 19 20  1  0
 20 21  2  0
 21 22  1  0
 22 23  2  0
 23 24  1  0
 24 25  1  0
 25 26  1  0
 26 27  2  3
 27 28  1  0
 28 29  2  0
 25 30  1  0
 30 31  1  0
 31 32  1  0
 32 33  1  0
  1 25  2  0
  5 18  2  0
 11  7  1  0
 33 25  1  0
M  END
$$$$
