
     RDKit          3D

 14 14  0  0  0  0  0  0  0  0999 V2000
   -0.4824   -1.1461   -1.5756 C   0  0  0  0  0  0  0  0  0  0  0  0
   -1.7138   -0.4371   -1.1116 C   0  0  0  0  0  0  0  0  0  0  0  0
   -1.4943    0.9922   -0.9363 N   0  0  0  0  0  0  0  0  0  0  0  0
   -0.2982    1.3749   -0.2801 C   0  0  0  0  0  0  0  0  0  0  0  0
   -0.2106    2.5105    0.3053 O   0  0  0  0  0  0  0  0  0  0  0  0
    0.8086    0.4463   -0.2952 C   0  0  0  0  0  0  0  0  0  0  0  0
    0.7495   -0.7220   -0.8853 C   0  0  0  0  0  0  0  0  0  0  0  0
    1.9231   -1.6672   -0.8822 C   0  0  0  0  0  0  0  0  0  0  0  0
    3.0588   -1.0682   -0.1449 C   0  0  0  0  0  0  0  0  0  0  0  0
    3.0253    0.1238    0.4202 C   0  0  0  0  0  0  0  0  0  0  0  0
    4.2175    0.6436    1.1414 C   0  0  0  0  0  1  0  0  0  0  0  0
   -2.1863   -1.0668    0.1593 C   0  0  0  0  0  0  0  0  0  0  0  0
   -3.3946   -0.4585    0.7206 C   0  0  0  0  0  0  0  0  0  0  0  0
   -4.0026    0.4746    0.2429 O   0  0  0  0  0  0  0  0  0  0  0  0
  1  2  1  0
  2  3  1  0
  3  4  1  0
  4  5  2  0
  4  6  1  0
  6  7  2  0
  7  8  1  0
  8  9  1  0
  9 10  2  3
 10 11  1  0
  2 12  1  0
 12 13  1  0
 13 14  2  0
  7  1  1  0
M  RAD  1  11   2
M  END
$$$$
