
     RDKit          3D

 36 35  0  0  0  0  0  0  0  0999 V2000
    0.4962   -5.1499   -0.7216 C   0  0  0  0  0  0  0  0  0  0  0  0
   -0.4710   -5.8498   -0.0301 O   0  0  0  0  0  0  0  0  0  0  0  0
   -1.6851   -5.5796   -0.5363 C   0  0  0  0  0  3  0  0  0  0  0  0
   -2.2297   -4.3440   -0.3647 O   0  0  0  0  0  0  0  0  0  0  0  0
   -2.1192   -4.0345    1.0046 C   0  0  2  0  0  0  0  0  0  0  0  0
   -3.5313   -3.4672    1.3414 C   0  0  0  0  0  0  0  0  0  0  0  0
   -1.1536   -2.9335    1.3407 C   0  0  0  0  0  3  0  0  0  0  0  0
   -0.8473   -1.8340    0.3925 C   0  0  1  0  0  0  0  0  0  0  0  0
    0.2929   -2.2725   -0.5554 C   0  0  0  0  0  3  0  0  0  0  0  0
    0.7536   -0.9614   -1.2605 C   0  0  0  0  0  0  0  0  0  0  0  0
    1.1952   -0.1365   -0.1223 C   0  0  2  0  0  0  0  0  0  0  0  0
    1.5276    1.2817   -0.7544 C   0  0  0  0  0  0  0  0  0  0  0  0
    1.8016    2.2148    0.1938 O   0  0  0  0  0  0  0  0  0  0  0  0
    2.5929   -0.5781    0.4267 C   0  0  0  0  0  0  0  0  0  0  0  0
    3.5276   -0.2598   -0.6007 O   0  0  0  0  0  0  0  0  0  0  0  0
    4.4880    0.6057    0.1511 B   0  0  0  0  0  0  0  0  0  0  0  0
    4.6804    0.3862    1.6866 C   0  0  0  0  0  2  0  0  0  0  0  0
    5.1989    1.7714   -0.6489 C   0  0  1  0  0  0  0  0  0  0  0  0
    4.5743    3.1063   -0.6470 C   0  0  0  0  0  0  0  0  0  0  0  0
    4.5412    3.8218    0.5095 O   0  0  0  0  0  0  0  0  0  0  0  0
    5.3578    4.9297    0.4528 C   0  0  0  0  0  0  0  0  0  0  0  0
    6.6608    4.5845    0.2285 O   0  0  0  0  0  0  0  0  0  0  0  0
    6.6134    1.8319   -0.2732 N   0  0  0  0  0  0  0  0  0  0  0  0
    6.8661    0.9338    0.8669 C   0  0  0  0  0  3  0  0  0  0  0  0
    7.6289   -0.1206    0.3240 O   0  0  0  0  0  0  0  0  0  0  0  0
   -1.9939   -1.3151   -0.3729 C   0  0  0  0  0  3  0  0  0  0  0  0
   -2.2556    0.0055   -0.2907 O   0  0  0  0  0  0  0  0  0  0  0  0
   -3.0131    0.2704    0.8660 C   0  0  0  0  0  0  0  0  0  0  0  0
   -4.0835   -0.7514    0.9904 C   0  0  0  0  0  0  0  0  0  0  0  0
   -5.0361   -0.8906   -0.1179 C   0  0  0  0  0  3  0  0  0  0  0  0
   -5.5998    0.3292   -0.3700 O   0  0  0  0  0  0  0  0  0  0  0  0
   -5.7227    0.9764    0.8946 C   0  0  0  0  0  3  0  0  0  0  0  0
   -6.8843    1.9249    0.7779 C   0  0  0  0  0  3  0  0  0  0  0  0
   -6.4201    3.1531    0.2701 O   0  0  0  0  0  0  0  0  0  0  0  0
   -7.2784    4.2208    0.1746 C   0  0  0  0  0  0  0  0  0  0  0  0
   -8.4729    4.1306    0.5111 O   0  0  0  0  0  0  0  0  0  0  0  0
  1  2  1  0
  2  3  1  0
  3  4  1  0
  4  5  1  0
  5  6  1  6
  5  7  1  0
  8  7  1  6
  8  9  1  0
  9 10  1  0
 11 10  1  6
 11 12  1  0
 12 13  1  0
 11 14  1  0
 14 15  1  0
 15 16  1  0
 16 17  1  0
 16 18  1  0
 18 19  1  1
 19 20  1  0
 20 21  1  0
 21 22  1  0
 18 23  1  0
 23 24  1  0
 24 25  1  0
  8 26  1  0
 26 27  1  0
 27 28  1  0
 28 29  1  0
 29 30  1  0
 30 31  1  0
 31 32  1  0
 32 33  1  0
 33 34  1  0
 34 35  1  0
 35 36  2  0
M  RAD  8   3   2   7   2   9   2  17   3  24   2  26   2  30   2  32   2
M  RAD  1  33   2
M  END
$$$$
