
     RDKit          3D

 35 37  0  0  0  0  0  0  0  0999 V2000
   -5.4363    1.2071   -0.3111 N   0  0  0  0  0  0  0  0  0  0  0  0
   -6.1043    1.1526    0.7645 C   0  0  0  0  0  0  0  0  0  0  0  0
   -5.8136    2.2519    1.5965 O   0  0  0  0  0  0  0  0  0  0  0  0
   -5.3431    3.3877    1.0415 O   0  0  0  0  0  0  0  0  0  0  0  0
   -6.4415    4.1135    0.5380 C   0  0  0  0  0  0  0  0  0  0  0  0
   -7.0455    0.2724    1.3101 N   0  0  0  0  0  0  0  0  0  0  0  0
   -7.4362   -1.0376    1.3637 N   0  0  0  0  0  0  0  0  0  0  0  0
   -6.3429   -1.8540    1.8454 C   0  0  0  0  0  0  0  0  0  0  0  0
   -7.8509   -1.5347   -0.2843 S   0  0  0  0  0  0  0  0  0  0  0  0
   -7.0905   -1.2364   -1.6974 C   0  0  0  0  0  0  0  0  0  0  0  0
   -5.8958   -0.5198   -2.1279 C   0  0  0  0  0  0  0  0  0  0  0  0
   -5.2260    0.4891   -1.5403 C   0  0  0  0  0  0  0  0  0  0  0  0
   -4.0709    0.9679   -2.3285 C   0  0  0  0  0  0  0  0  0  0  0  0
   -2.7591    0.8075   -1.7502 C   0  0  0  0  0  0  0  0  0  0  0  0
   -2.3885    0.2414   -0.6319 C   0  0  0  0  0  0  0  0  0  0  0  0
   -3.1818   -0.4359    0.4359 C   0  0  0  0  0  0  0  0  0  0  0  0
   -2.2447   -1.5202    0.8758 C   0  0  0  0  0  0  0  0  0  0  0  0
   -0.9945   -1.1781    0.5508 C   0  0  0  0  0  0  0  0  0  0  0  0
   -0.9636    0.1323   -0.1209 C   0  0  0  0  0  0  0  0  0  0  0  0
    0.0027    0.1564   -1.2909 C   0  0  0  0  0  0  0  0  0  0  0  0
    1.3929    0.0500   -0.7913 C   0  0  0  0  0  0  0  0  0  0  0  0
    1.6016   -0.0408    0.4401 O   0  0  0  0  0  0  0  0  0  0  0  0
    2.5028    0.0519   -1.7352 C   0  0  0  0  0  0  0  0  0  0  0  0
    3.7539   -0.0389   -1.3626 C   0  0  0  0  0  0  0  0  0  0  0  0
    4.0658   -0.1492    0.0846 C   0  0  0  0  0  0  0  0  0  0  0  0
    4.7850   -1.4086    0.3560 C   0  0  0  0  0  0  0  0  0  0  0  0
    5.9904   -1.4046    0.8783 C   0  0  0  0  0  0  0  0  0  0  0  0
    6.7179   -2.6265    1.1545 C   0  0  0  0  0  0  0  0  0  0  0  0
    7.9296   -2.5694    1.6813 C   0  0  0  0  0  0  0  0  0  0  0  0
    8.5261   -1.3665    1.9781 O   0  0  0  0  0  0  0  0  0  0  0  0
    8.8912   -0.2625    0.7500 S   0  0  0  0  0  0  0  0  0  0  0  0
    7.7526    0.9511    0.0950 C   0  0  0  0  0  0  0  0  0  0  0  0
    8.6730    1.6424   -0.9861 C   0  0  0  0  0  0  0  0  0  0  0  0
    9.8087    1.1601   -1.0341 C   0  0  0  0  0  0  0  0  0  0  0  0
   10.2358    0.1484   -0.2525 O   0  0  0  0  0  0  0  0  0  0  0  0
  1  2  2  3
  2  3  1  0
  3  4  1  0
  4  5  1  0
  2  6  1  0
  6  7  1  0
  7  8  1  0
  7  9  1  0
  9 10  2  3
 10 11  1  0
 11 12  2  3
 12 13  1  0
 13 14  1  0
 14 15  2  3
 15 16  1  0
 16 17  1  0
 17 18  2  0
 18 19  1  0
 19 20  1  0
 20 21  1  0
 21 22  2  0
 21 23  1  0
 23 24  2  3
 24 25  1  0
 25 26  1  0
 26 27  2  3
 27 28  1  0
 28 29  2  3
 29 30  1  0
 30 31  1  0
 31 32  2  0
 32 33  1  0
 33 34  2  0
 34 35  1  0
 12  1  1  0
 19 15  1  0
 35 31  1  0
M  END
$$$$
