
     RDKit          3D

 35 35  0  0  0  0  0  0  0  0999 V2000
   10.5390    1.3394    0.4364 C   0  0  0  0  0  0  0  0  0  0  0  0
    9.3310    0.5330    0.7501 C   0  0  0  0  0  0  0  0  0  0  0  0
    9.3760   -0.7115    0.9092 O   0  0  0  0  0  0  0  0  0  0  0  0
    8.0944    1.1521    0.8776 O   0  0  0  0  0  0  0  0  0  0  0  0
    6.8995    0.4838    1.1705 C   0  0  0  0  0  3  0  0  0  0  0  0
    7.0639   -0.9760    1.3381 C   0  0  0  0  0  0  0  0  0  0  0  0
    6.6315   -1.7429    0.5054 O   0  0  0  0  0  0  0  0  0  0  0  0
    5.8488    0.8349    0.1410 C   0  0  0  0  0  0  0  0  0  0  0  0
    6.2037    0.2708   -1.2241 C   0  0  0  0  0  0  0  0  0  0  0  0
    5.0961    0.6758   -2.1757 C   0  0  0  0  0  3  0  0  0  0  0  0
    3.7916    0.1052   -1.6826 C   0  0  0  0  0  0  0  0  0  0  0  0
    3.4504    0.6054   -0.3136 C   0  0  0  0  0  0  0  0  0  0  0  0
    2.1537    0.0288    0.1586 C   0  0  2  0  0  0  0  0  0  0  0  0
    2.2018   -1.4480    0.2229 C   0  0  0  0  0  0  0  0  0  0  0  0
    1.0320    0.7049   -0.3637 C   0  0  0  0  0  0  0  0  0  0  0  0
   -0.0614    0.3799   -0.8444 C   0  0  0  0  0  0  0  0  0  0  0  0
   -0.7031   -0.8627   -1.0961 C   0  0  0  0  0  0  0  0  0  0  0  0
   -0.1813   -1.9508   -0.8308 O   0  0  0  0  0  0  0  0  0  0  0  0
   -2.0824   -0.9496   -1.7117 C   0  0  0  0  0  0  0  0  0  0  0  0
   -2.5354    0.4651   -1.9555 C   0  0  0  0  0  0  0  0  0  0  0  0
   -2.5693    1.1881   -0.6369 C   0  0  0  0  0  2  0  0  0  0  0  0
   -3.8107    2.0213   -0.5753 C   0  0  0  0  0  0  0  0  0  0  0  0
   -5.0002    1.2033   -0.9387 C   0  0  0  0  0  0  0  0  0  0  0  0
   -6.2905    1.9342   -0.9100 C   0  0  0  0  0  0  0  0  0  0  0  0
   -7.4515    1.0660   -1.2552 C   0  0  0  0  0  3  0  0  0  0  0  0
   -7.0486    0.1394   -2.3788 C   0  0  0  0  0  0  0  0  0  0  0  0
   -6.7294   -1.2466   -1.8514 C   0  0  0  0  0  0  0  0  0  0  0  0
   -5.7395   -1.1796   -0.7396 C   0  0  0  0  0  3  0  0  0  0  0  0
   -5.0065   -0.1425   -0.3521 C   0  0  0  0  0  0  0  0  0  0  0  0
   -4.1620   -0.3510    0.7131 O   0  0  0  0  0  0  0  0  0  0  0  0
   -4.4984    0.0775    1.9955 C   0  0  0  0  0  0  0  0  0  0  0  0
   -5.7616   -0.5778    2.4453 C   0  0  2  0  0  0  0  0  0  0  0  0
   -6.8527   -0.2997    1.6262 O   0  0  0  0  0  0  0  0  0  0  0  0
   -6.0501   -0.3299    3.8662 C   0  0  0  0  0  0  0  0  0  0  0  0
   -5.1789   -0.5350    4.6802 O   0  0  0  0  0  0  0  0  0  0  0  0
  1  2  1  0
  2  3  2  0
  2  4  1  0
  4  5  1  0
  5  6  1  0
  6  7  2  0
  5  8  1  0
  8  9  1  0
  9 10  1  0
 10 11  1  0
 11 12  1  0
 12 13  1  0
 13 14  1  6
 13 15  1  0
 15 16  2  3
 16 17  1  0
 17 18  2  0
 17 19  1  0
 19 20  1  0
 20 21  1  0
 21 22  1  0
 22 23  1  0
 23 24  1  0
 24 25  1  0
 25 26  1  0
 26 27  1  0
 27 28  1  0
 28 29  2  0
 29 30  1  0
 30 31  1  0
 31 32  1  0
 32 33  1  6
 32 34  1  0
 34 35  2  0
 29 23  1  0
M  RAD  5   5   2  10   2  21   3  25   2  28   2
M  END
$$$$
