
     RDKit          3D

 59 63  0  0  0  0  0  0  0  0999 V2000
    5.9550    4.9549    3.2966 C   0  0  0  0  0  0  0  0  0  0  0  0
    5.6967    4.2074    4.4887 O   0  0  0  0  0  0  0  0  0  0  0  0
    4.6194    3.3583    4.6201 C   0  0  0  0  0  0  0  0  0  0  0  0
    4.2042    2.7175    3.5226 C   0  0  0  0  0  0  0  0  0  0  0  0
    3.0816    1.8190    3.6106 C   0  0  0  0  0  0  0  0  0  0  0  0
    2.5420    1.1235    2.6540 C   0  0  0  0  0  0  0  0  0  0  0  0
    1.4061    0.2730    2.9584 C   0  0  0  0  0  0  0  0  0  0  0  0
    0.8977   -0.6351    2.1640 C   0  0  0  0  0  0  0  0  0  0  0  0
    1.4484   -0.8917    0.8387 C   0  0  0  0  0  0  0  0  0  0  0  0
    2.7673   -1.6291    0.8776 C   0  0  0  0  0  0  0  0  0  0  0  0
    3.4238   -1.5991   -0.3194 O   0  0  0  0  0  0  0  0  0  0  0  0
    2.6703   -2.9599    1.5415 C   0  0  0  0  0  0  0  0  0  0  0  0
    1.9805   -2.8613    2.8617 C   0  0  0  0  0  0  0  0  0  0  0  0
    0.6875   -3.6318    2.9499 C   0  0  0  0  0  0  0  0  0  0  0  0
   -0.0787   -3.7144    1.6761 C   0  0  0  0  0  0  0  0  0  0  0  0
    0.7905   -3.9844    0.5106 C   0  0  0  0  0  0  0  0  0  0  0  0
    0.8004   -2.9256   -0.5561 C   0  0  0  0  0  0  0  0  0  0  0  0
    0.7982   -5.3146   -0.0423 C   0  0  0  0  0  0  0  0  0  0  0  0
   -0.1623   -6.1548   -0.3030 C   0  0  0  0  0  0  0  0  0  0  0  0
    0.2248   -7.4861   -0.8895 C   0  0  0  0  0  0  0  0  0  0  0  0
   -1.5806   -5.8391   -0.0373 C   0  0  0  0  0  0  0  0  0  0  0  0
   -2.3978   -6.6207   -1.0174 C   0  0  0  0  0  0  0  0  0  0  0  0
   -3.2069   -7.4255   -1.9231 C   0  0  0  0  0  0  0  0  0  0  0  0
   -2.5111   -6.1916   -2.2851 C   0  0  0  0  0  0  0  0  0  0  0  0
   -1.8281   -4.9388   -2.7175 C   0  0  0  0  0  0  0  0  0  0  0  0
   -2.0547   -3.9076   -1.6570 C   0  0  0  0  0  0  0  0  0  0  0  0
   -1.1960   -2.7976   -1.8216 O   0  0  0  0  0  0  0  0  0  0  0  0
   -1.6901   -1.6637   -1.2247 C   0  0  0  0  0  0  0  0  0  0  0  0
   -0.6753   -0.9964   -0.3326 C   0  0  0  0  0  0  0  0  0  0  0  0
    0.4703   -1.5896   -0.0476 C   0  0  0  0  0  0  0  0  0  0  0  0
    3.0625    1.1977    1.2882 C   0  0  0  0  0  0  0  0  0  0  0  0
    4.3518    1.8825    1.1535 C   0  0  0  0  0  0  0  0  0  0  0  0
    4.6835    2.4192   -0.0347 C   0  0  0  0  0  0  0  0  0  0  0  0
    5.9805    3.1242   -0.2242 C   0  0  0  0  0  0  0  0  0  0  0  0
    6.3927    3.0061   -1.6868 C   0  0  0  0  0  0  0  0  0  0  0  0
    5.4908    3.8805   -2.5428 C   0  0  0  0  0  0  0  0  0  0  0  0
    5.1295    3.1661   -3.8314 C   0  0  0  0  0  0  0  0  0  0  0  0
    4.1277    4.0180   -4.5477 C   0  0  0  0  0  0  0  0  0  0  0  0
    2.8385    3.8405   -3.9966 C   0  0  0  0  0  0  0  0  0  0  0  0
    1.8538    3.7233   -3.5737 C   0  0  0  0  0  0  0  0  0  0  0  0
    0.5494    3.5554   -3.0037 C   0  0  0  0  0  0  0  0  0  0  0  0
   -0.2145    2.5430   -3.8372 C   0  0  0  0  0  0  0  0  0  0  0  0
   -0.4570    1.2406   -3.0665 C   0  0  0  0  0  0  0  0  0  0  0  0
    0.7959    1.1007   -1.7354 S   0  0  0  0  0  0  0  0  0  0  0  0
   -0.0725    1.4283   -0.1764 C   0  0  0  0  0  0  0  0  0  0  0  0
   -1.0428    0.3324    0.2040 C   0  0  0  0  0  0  0  0  0  0  0  0
   -2.4071    0.7512   -0.1788 C   0  0  0  0  0  0  0  0  0  0  0  0
   -3.3836    0.9936    0.6404 C   0  0  0  0  0  0  0  0  0  0  0  0
   -4.7400    1.4062    0.3340 C   0  0  0  0  0  0  0  0  0  0  0  0
   -5.8206    0.9349    1.2263 C   0  0  0  0  0  0  0  0  0  0  0  0
   -5.0918    1.6025   -1.0592 C   0  0  0  0  0  0  0  0  0  0  0  0
   -4.9672    0.4726   -2.0159 C   0  0  0  0  0  0  0  0  0  0  0  0
   -5.5341    2.7781   -1.5360 C   0  0  0  0  0  0  0  0  0  0  0  0
   -5.6774    3.9601   -0.5962 C   0  0  0  0  0  0  0  0  0  0  0  0
   -7.0739    4.1319   -0.1756 C   0  0  0  0  0  0  0  0  0  0  0  0
   -7.5512    3.7292    1.2925 S   0  0  0  0  0  0  0  0  0  0  0  0
   -6.2914    3.0974    2.2745 O   0  0  0  0  0  0  0  0  0  0  0  0
   -6.0332    1.7537    2.4162 C   0  0  0  0  0  0  0  0  0  0  0  0
   -5.9817    1.2346    3.5920 N   0  0  0  0  0  0  0  0  0  0  0  0
  1  2  1  0
  2  3  1  0
  3  4  2  3
  4  5  1  0
  5  6  2  3
  6  7  1  0
  7  8  2  3
  8  9  1  0
  9 10  1  0
 10 11  1  0
 10 12  1  0
 12 13  1  0
 13 14  1  0
 14 15  1  0
 15 16  1  0
 16 17  1  0
 16 18  1  0
 18 19  2  3
 19 20  1  0
 19 21  1  0
 21 22  1  0
 22 23  1  0
 22 24  2  0
 24 25  1  0
 25 26  1  0
 26 27  1  0
 27 28  1  0
 28 29  1  0
 29 30  2  3
  6 31  1  0
 31 32  1  0
 32 33  2  3
 33 34  1  0
 34 35  1  0
 35 36  1  0
 36 37  1  0
 37 38  1  0
 38 39  1  0
 39 40  3  0
 40 41  1  0
 41 42  1  0
 42 43  1  0
 43 44  1  0
 44 45  1  0
 45 46  1  0
 46 47  1  0
 47 48  2  3
 48 49  1  0
 49 50  1  0
 49 51  1  0
 51 52  1  0
 51 53  2  3
 53 54  1  0
 54 55  1  0
 55 56  2  3
 56 57  1  0
 57 58  1  0
 58 59  2  0
 30  9  1  0
 30 17  1  0
 24 23  1  0
 46 29  1  0
 58 50  1  0
M  END
$$$$
