
     RDKit          3D

 11 11  0  0  0  0  0  0  0  0999 V2000
    3.2230   -0.7082    0.8864 O   0  0  0  0  0  0  0  0  0  0  0  0
    2.3806   -1.1092    0.0597 C   0  0  0  0  0  0  0  0  0  0  0  0
    1.1037   -0.4444   -0.1818 C   0  0  0  0  0  0  0  0  0  0  0  0
    0.8226    0.6521    0.5203 C   0  0  0  0  0  0  0  0  0  0  0  0
   -0.4258    1.4309    0.3867 C   0  0  0  0  0  0  0  0  0  0  0  0
   -0.4630    2.5430    0.9652 O   0  0  0  0  0  0  0  0  0  0  0  0
   -1.6782    1.1288   -0.3268 C   0  0  0  0  0  0  0  0  0  0  0  0
   -1.9171   -0.3374   -0.5238 C   0  0  0  0  0  0  0  0  0  0  0  0
   -2.3854   -1.0565    0.6933 C   0  0  0  0  0  0  0  0  0  0  0  0
   -0.9581   -1.0276   -1.3111 N   0  0  0  0  0  0  0  0  0  0  0  0
    0.2977   -1.0715   -1.1681 N   0  0  0  0  0  0  0  0  0  0  0  0
  1  2  2  0
  2  3  1  0
  3  4  2  0
  4  5  1  0
  5  6  2  0
  5  7  1  0
  7  8  1  0
  8  9  1  0
  8 10  1  0
 10 11  2  0
 11  3  1  0
M  END
$$$$
