
     RDKit          3D

 14 14  0  0  0  0  0  0  0  0999 V2000
    3.3246    1.7850    0.3258 C   0  0  0  0  0  0  0  0  0  0  0  0
    3.8972    0.5965   -0.1334 O   0  0  0  0  0  0  0  0  0  0  0  0
    3.2074   -0.5269    0.2840 C   0  0  0  0  0  3  0  0  0  0  0  0
    1.8370   -0.4514    0.0034 O   0  0  0  0  0  0  0  0  0  0  0  0
    1.2278   -1.4590    0.7293 C   0  0  2  0  0  0  0  0  0  0  0  0
    1.6160   -2.8263    0.2395 C   0  0  0  0  0  0  0  0  0  0  0  0
   -0.2608   -1.2800    0.8756 C   0  0  0  0  0  3  0  0  0  0  0  0
   -0.7964   -0.1211    0.0754 C   0  0  0  0  0  0  0  0  0  0  0  0
   -1.8536   -0.6031   -0.7013 O   0  0  0  0  0  0  0  0  0  0  0  0
   -3.0420   -0.5022    0.0140 C   0  0  0  0  0  3  0  0  0  0  0  0
   -3.6755    0.8322   -0.3487 C   0  0  0  0  0  3  0  0  0  0  0  0
   -2.5649    1.7786   -0.7800 C   0  0  0  0  0  3  0  0  0  0  0  0
   -1.5873    1.9906    0.3606 C   0  0  0  0  0  3  0  0  0  0  0  0
   -1.3294    0.7870    1.0016 O   0  0  0  0  0  0  0  0  0  0  0  0
  1  2  1  0
  2  3  1  0
  3  4  1  0
  4  5  1  0
  5  6  1  6
  5  7  1  0
  7  8  1  0
  8  9  1  0
  9 10  1  0
 10 11  1  0
 11 12  1  0
 12 13  1  0
  8 14  1  0
 14 13  1  0
M  RAD  6   3   2   7   2  10   2  11   2  12   2  13   2
M  END
$$$$
