
     RDKit          3D

 23 24  0  0  0  0  0  0  0  0999 V2000
    1.7628   -1.5339   -1.0650 C   0  0  0  0  0  0  0  0  0  0  0  0
    1.7619   -0.9181    0.3321 C   0  0  1  0  0  0  0  0  0  0  0  0
    3.2175   -0.9033    0.8417 C   0  0  0  0  0  0  0  0  0  0  0  0
    4.0336   -0.3977   -0.3292 C   0  0  2  0  0  0  0  0  0  0  0  0
    5.3556   -0.2983    0.1031 O   0  0  0  0  0  0  0  0  0  0  0  0
    3.6260    0.9725   -0.8055 C   0  0  2  0  0  0  0  0  0  0  0  0
    4.0811    1.9174    0.1098 O   0  0  0  0  0  0  0  0  0  0  0  0
    2.1424    1.1229   -1.0401 C   0  0  1  0  0  0  0  0  0  0  0  0
    1.8544    0.4275   -2.2216 O   0  0  0  0  0  0  0  0  0  0  0  0
    1.4352    0.5653    0.1610 C   0  0  1  0  0  0  0  0  0  0  0  0
    0.0855    0.8871    0.3269 N   0  0  0  0  0  0  0  0  0  0  0  0
   -0.8818    0.3529   -0.5534 C   0  0  1  0  0  0  0  0  0  0  0  0
   -1.0309   -1.1473   -0.5386 C   0  0  0  0  0  0  0  0  0  0  0  0
   -1.5796   -1.6168   -1.8474 C   0  0  0  0  0  0  0  0  0  0  0  0
   -1.6649   -1.6457    0.5707 O   0  0  0  0  0  0  0  0  0  0  0  0
   -3.0354   -1.4036    0.6139 C   0  0  2  0  0  0  0  0  0  0  0  0
   -3.5372   -0.9409   -0.6016 O   0  0  0  0  0  0  0  0  0  0  0  0
   -3.2428   -0.3413    1.6933 C   0  0  2  0  0  0  0  0  0  0  0  0
   -4.5695   -0.0208    1.8841 O   0  0  0  0  0  0  0  0  0  0  0  0
   -2.4192    0.8488    1.2869 C   0  0  2  0  0  0  0  0  0  0  0  0
   -2.8455    2.0280    1.8605 O   0  0  0  0  0  0  0  0  0  0  0  0
   -2.2299    0.9501   -0.2115 C   0  0  1  0  0  0  0  0  0  0  0  0
   -2.3192    2.2993   -0.5701 O   0  0  0  0  0  0  0  0  0  0  0  0
  2  1  1  6
  2  3  1  0
  3  4  1  0
  4  5  1  1
  4  6  1  0
  6  7  1  1
  6  8  1  0
  8  9  1  6
  8 10  1  0
 10 11  1  6
 12 11  1  1
 12 13  1  0
 13 14  1  0
 13 15  1  0
 15 16  1  0
 16 17  1  6
 16 18  1  0
 18 19  1  6
 18 20  1  0
 20 21  1  6
 20 22  1  0
 22 23  1  1
 10  2  1  0
 22 12  1  0
M  END
$$$$
