
     RDKit          3D

  8  7  0  0  0  0  0  0  0  0999 V2000
   -0.7204   -1.2144    1.9837 F   0  0  0  0  0  0  0  0  0  0  0  0
   -0.7466   -1.7580    0.7337 N   0  0  0  0  0  0  0  0  0  0  0  0
   -1.2626   -0.8189   -0.1667 N   0  0  0  0  0  3  0  0  0  0  0  0
   -1.6917   -1.4006   -1.3519 N   0  0  0  0  0  0  0  0  0  0  0  0
   -0.2829    0.1626   -0.3657 C   0  0  0  0  0  0  0  0  0  0  0  0
    0.5587    1.0144   -0.5172 C   0  0  0  0  0  0  0  0  0  0  0  0
    1.5804    2.0367   -0.6759 C   0  0  0  0  0  0  0  0  0  0  0  0
    2.5651    1.9782    0.1376 O   0  0  0  0  0  0  0  0  0  0  0  0
  1  2  1  0
  2  3  1  0
  3  4  1  0
  3  5  1  0
  5  6  3  0
  6  7  1  0
  7  8  2  0
M  CHG  1   3   1
M  RAD  1   3   2
M  END
$$$$
