
     RDKit          3D

 28 29  0  0  0  0  0  0  0  0999 V2000
   -1.9535   -2.4629   -0.2962 C   0  0  0  0  0  0  0  0  0  0  0  0
   -1.8136   -1.9645    1.0967 C   0  0  0  0  0  0  0  0  0  0  0  0
   -1.1253   -2.9280    2.0297 C   0  0  0  0  0  0  0  0  0  0  0  0
   -3.0991   -1.4261    1.6759 C   0  0  0  0  0  3  0  0  0  0  0  0
   -3.1752    0.0510    1.5094 C   0  0  0  0  0  0  0  0  0  0  0  0
   -3.5930    0.8025    2.4267 O   0  0  0  0  0  0  0  0  0  0  0  0
   -2.7675    0.6442    0.2840 N   0  0  0  0  0  0  0  0  0  0  0  0
   -2.1794    2.2862    0.2321 S   0  0  0  0  0  0  0  0  0  0  0  0
   -0.6004    2.2665   -0.5866 C   0  0  0  0  0  0  0  0  0  0  0  0
   -3.1469    3.1502   -0.5221 O   0  0  0  0  0  0  0  0  0  0  0  0
   -1.9809    2.7756    1.6184 O   0  0  0  0  0  0  0  0  0  0  0  0
   -2.8382   -0.1194   -0.9438 C   0  0  0  0  0  3  0  0  0  0  0  0
   -1.6092    0.0478   -1.7921 C   0  0  0  0  0  0  0  0  0  0  0  0
   -0.9667   -1.2458   -2.1851 C   0  0  0  0  0  0  0  0  0  0  0  0
   -0.7611   -2.1467   -1.0644 N   0  0  0  0  0  0  0  0  0  0  0  0
    0.5205   -2.6828   -0.7417 C   0  0  0  0  0  0  0  0  0  0  0  0
    0.5232   -3.7345   -0.0345 O   0  0  0  0  0  0  0  0  0  0  0  0
    1.6980   -2.0172   -1.2241 C   0  0  0  0  0  0  0  0  0  0  0  0
    2.0244   -0.7702   -1.0691 C   0  0  0  0  0  0  0  0  0  0  0  0
    1.3298    0.2010   -0.4139 O   0  0  0  0  0  0  0  0  0  0  0  0
    2.0548    1.1409    0.3626 C   0  0  0  0  0  0  0  0  0  0  0  0
    3.3082    0.5482    0.9347 C   0  0  0  0  0  0  0  0  0  0  0  0
    4.1971    0.0799   -0.1172 N   0  0  0  0  0  0  0  0  0  0  0  0
    5.3926   -0.4835    0.4787 C   0  0  0  0  0  0  0  0  0  0  0  0
    6.3293   -0.9758   -0.5976 C   0  0  0  0  0  0  0  0  0  0  0  0
    2.3899    2.3140   -0.4900 C   0  0  0  0  0  0  0  0  0  0  0  0
    1.5731    3.3378   -0.6413 C   0  0  0  0  0  0  0  0  0  0  0  0
    0.2691    3.3115    0.0707 C   0  0  0  0  0  3  0  0  0  0  0  0
  1  2  1  0
  2  3  1  0
  2  4  1  0
  4  5  1  0
  5  6  2  0
  5  7  1  0
  7  8  1  0
  8  9  1  0
  8 10  2  0
  8 11  2  0
  7 12  1  0
 12 13  1  0
 13 14  1  0
 14 15  1  0
 15 16  1  0
 16 17  2  0
 16 18  1  0
 18 19  2  3
 19 20  1  0
 20 21  1  0
 21 22  1  0
 22 23  1  0
 23 24  1  0
 24 25  1  0
 21 26  1  0
 26 27  2  3
 27 28  1  0
 15  1  1  0
 28  9  1  0
M  RAD  3   4   2  12   2  28   2
M  END
$$$$
