
     RDKit          3D

 15 15  0  0  0  0  0  0  0  0999 V2000
    3.0724   -2.2026    0.9358 C   0  0  0  0  0  0  0  0  0  0  0  0
    3.5696   -1.2880   -0.0024 O   0  0  0  0  0  0  0  0  0  0  0  0
    2.6155   -1.0340   -0.9840 C   0  0  0  0  0  3  0  0  0  0  0  0
    1.3401   -0.8654   -0.4718 O   0  0  0  0  0  0  0  0  0  0  0  0
    1.1067    0.4924   -0.2703 C   0  0  2  0  0  0  0  0  0  0  0  0
    1.6372    0.9345    1.0654 C   0  0  0  0  0  0  0  0  0  0  0  0
    1.8206    2.4289    1.0970 C   0  0  0  0  0  2  0  0  0  0  0  0
   -0.3673    0.7688   -0.3898 C   0  0  1  0  0  0  0  0  0  0  0  0
   -1.0425   -0.3719    0.0377 O   0  0  0  0  0  0  0  0  0  0  0  0
   -1.8428   -0.9052   -0.9784 C   0  0  0  0  0  3  0  0  0  0  0  0
   -3.2710   -1.0565   -0.5165 C   0  0  0  0  0  0  0  0  0  0  0  0
   -3.6860   -1.6984    0.6524 C   0  0  0  0  0  0  0  0  0  0  0  0
   -3.6224   -0.2251    0.5535 O   0  0  0  0  0  0  0  0  0  0  0  0
   -0.7257    1.8872    0.5791 C   0  0  0  0  0  0  0  0  0  0  0  0
   -0.6046    3.1354   -0.0109 O   0  0  0  0  0  0  0  0  0  0  0  0
  1  2  1  0
  2  3  1  0
  3  4  1  0
  4  5  1  0
  5  6  1  1
  6  7  1  0
  5  8  1  0
  8  9  1  0
  9 10  1  0
 10 11  1  0
 11 12  1  0
 11 13  1  0
  8 14  1  1
 14 15  1  0
 13 12  1  0
M  RAD  3   3   2   7   3  10   2
M  END
$$$$
