
     RDKit          3D

 17 17  0  0  0  0  0  0  0  0999 V2000
   -5.2260    0.4899    0.6096 O   0  0  0  0  0  0  0  0  0  0  0  0
   -3.9510    0.2485    0.1632 C   0  0  0  0  0  0  0  0  0  0  0  0
   -3.6886   -0.8291   -0.7583 C   0  0  0  0  0  0  0  0  0  0  0  0
   -2.4332   -1.8641   -0.7459 S   0  0  0  0  0  0  0  0  0  0  0  0
   -1.1289   -1.8886    0.3943 O   0  0  0  0  0  0  0  0  0  0  0  0
   -0.2743   -2.9663    0.3244 C   0  0  0  0  0  0  0  0  0  0  0  0
    1.2139   -2.8382    0.9385 S   0  0  0  0  0  0  0  0  0  0  0  0
    1.6775   -1.3433    1.6637 O   0  0  0  0  0  0  0  0  0  0  0  0
    2.7952   -0.5801    1.4553 C   0  0  0  0  0  0  0  0  0  0  0  0
    3.1886    0.2503    0.1088 S   0  0  0  0  0  0  0  0  0  0  0  0
    4.6205    1.1993   -0.0929 O   0  0  0  0  0  0  0  0  0  0  0  0
    4.5996    2.3964    0.6132 C   0  0  0  0  0  0  0  0  0  0  0  0
   -2.7949    1.2214    0.7205 S   0  0  0  0  0  0  0  0  0  0  0  0
   -1.0999    1.1913    0.3619 O   0  0  0  0  0  0  0  0  0  0  0  0
   -0.4270    2.3611    0.0458 C   0  0  0  0  0  0  0  0  0  0  0  0
    1.0695    2.2309   -0.5917 S   0  0  0  0  0  0  0  0  0  0  0  0
    1.8590    0.7206   -0.8934 O   0  0  0  0  0  0  0  0  0  0  0  0
  1  2  1  0
  2  3  1  0
  3  4  2  3
  4  5  1  0
  5  6  1  0
  6  7  2  3
  7  8  1  0
  8  9  1  0
  9 10  2  3
 10 11  1  0
 11 12  1  0
  2 13  2  3
 13 14  1  0
 14 15  1  0
 15 16  2  3
 16 17  1  0
 17 10  1  0
M  END
$$$$
