
     RDKit          3D

 21 20  0  0  0  0  0  0  0  0999 V2000
    3.4692    3.8343    0.3585 C   0  0  0  0  0  0  0  0  0  0  0  0
    4.3299    2.5887    0.1974 C   0  0  0  0  0  0  0  0  0  0  0  0
    4.8857    2.2531    1.5510 C   0  0  0  0  0  0  0  0  0  0  0  0
    3.4312    1.4808   -0.2777 C   0  0  0  0  0  0  0  0  0  0  0  0
    4.2118    0.2183   -0.4593 C   0  0  0  0  0  0  0  0  0  0  0  0
    3.2505   -0.8652   -0.9404 C   0  0  0  0  0  0  0  0  0  0  0  0
    2.1905   -1.0378    0.1009 C   0  0  1  0  0  0  0  0  0  0  0  0
    1.3969    0.2158    0.3617 C   0  0  0  0  0  0  0  0  0  0  0  0
    1.2842   -2.1980   -0.2245 C   0  0  0  0  0  3  0  0  0  0  0  0
    0.2441   -2.3220    0.8433 C   0  0  0  0  0  0  0  0  0  0  0  0
   -0.6257   -3.5126    0.5577 C   0  0  0  0  0  0  0  0  0  0  0  0
   -1.2986   -3.3389   -0.7647 C   0  0  2  0  0  0  0  0  0  0  0  0
   -0.3565   -3.1881   -1.9118 C   0  0  0  0  0  0  0  0  0  0  0  0
   -2.2911   -2.2471   -0.7410 C   0  0  0  0  0  3  0  0  0  0  0  0
   -1.6870   -0.9078   -0.3947 C   0  0  0  0  0  0  0  0  0  0  0  0
   -2.7860    0.1081   -0.4032 C   0  0  0  0  0  0  0  0  0  0  0  0
   -3.4873    0.2486   -1.7122 C   0  0  0  0  0  0  0  0  0  0  0  0
   -2.3624    1.4284    0.1973 C   0  0  0  0  0  0  0  0  0  0  0  0
   -3.4722    2.4272    0.1793 C   0  0  0  0  0  0  0  0  0  0  0  0
   -4.6691    1.9363    0.9691 C   0  0  0  0  0  0  0  0  0  0  0  0
   -5.6582    2.8779    0.9265 F   0  0  0  0  0  0  0  0  0  0  0  0
  1  2  1  0
  2  3  1  0
  2  4  1  0
  4  5  1  0
  5  6  1  0
  6  7  1  0
  7  8  1  6
  7  9  1  0
  9 10  1  0
 10 11  1  0
 11 12  1  0
 12 13  1  6
 12 14  1  0
 14 15  1  0
 15 16  1  0
 16 17  1  0
 16 18  1  0
 18 19  1  0
 19 20  1  0
 20 21  1  0
M  RAD  2   9   2  14   2
M  END
$$$$
