
     RDKit          2D

 94 94  0  0  0  0  0  0  0  0999 V2000
    3.0000    0.0000    0.0000 C   0  0  0  0  0  0  0  0  0  0  0  0
    1.5000    0.0000    0.0000 C   0  0  0  0  0  0  0  0  0  0  0  0
    0.7500   -1.2990    0.0000 C   0  0  0  0  0  0  0  0  0  0  0  0
   -0.7500   -1.2990    0.0000 C   0  0  0  0  0  0  0  0  0  0  0  0
   -1.5000   -2.5981    0.0000 O   0  0  0  0  0  0  0  0  0  0  0  0
   -1.5000    0.0000    0.0000 C   0  0  0  0  0  0  0  0  0  0  0  0
   -3.0000    0.0000    0.0000 O   0  0  0  0  0  0  0  0  0  0  0  0
   -0.7500    1.2990    0.0000 C   0  0  0  0  0  0  0  0  0  0  0  0
   -1.5000    2.5981    0.0000 O   0  0  0  0  0  0  0  0  0  0  0  0
    0.7500    1.2990    0.0000 C   0  0  0  0  0  0  0  0  0  0  0  0
    1.5000    2.5981    0.0000 N   0  0  0  0  0  0  0  0  0  0  0  0
    0.7500    3.8971    0.0000 C   0  0  0  0  0  3  0  0  0  0  0  0
    1.5000    5.1962    0.0000 C   0  0  0  0  0  0  0  0  0  0  0  0
    0.7500    6.4952    0.0000 O   0  0  0  0  0  0  0  0  0  0  0  0
    1.5000    7.7942    0.0000 C   0  0  0  0  0  0  0  0  0  0  0  0
    0.7500    9.0933    0.0000 O   0  0  0  0  0  0  0  0  0  0  0  0
    1.5000   10.3923    0.0000 C   0  0  0  0  0  0  0  0  0  0  0  0
    3.0000   10.3923    0.0000 O   0  0  0  0  0  0  0  0  0  0  0  0
    0.7500   11.6913    0.0000 C   0  0  0  0  0  0  0  0  0  0  0  0
    1.5000   12.9904    0.0000 C   0  0  0  0  0  2  0  0  0  0  0  0
   -0.7500   11.6913    0.0000 O   0  0  0  0  0  0  0  0  0  0  0  0
   -1.5000   12.9904    0.0000 C   0  0  0  0  0  0  0  0  0  0  0  0
   -3.0000   12.9904    0.0000 N   0  0  0  0  0  0  0  0  0  0  0  0
   -3.7500   14.2894    0.0000 C   0  0  0  0  0  3  0  0  0  0  0  0
   -5.2500   14.2894    0.0000 O   0  0  0  0  0  0  0  0  0  0  0  0
   -6.0000   15.5885    0.0000 C   0  0  0  0  0  3  0  0  0  0  0  0
   -7.5000   15.5885    0.0000 O   0  0  0  0  0  0  0  0  0  0  0  0
   -8.2500   16.8875    0.0000 N   0  0  0  0  0  0  0  0  0  0  0  0
   -9.7500   16.8875    0.0000 O   0  0  0  0  0  0  0  0  0  0  0  0
  -10.5000   18.1865    0.0000 C   0  0  0  0  0  3  0  0  0  0  0  0
  -12.0000   18.1865    0.0000 O   0  0  0  0  0  0  0  0  0  0  0  0
  -12.7500   19.4856    0.0000 O   0  0  0  0  0  0  0  0  0  0  0  0
  -14.2500   19.4856    0.0000 C   0  0  0  0  0  3  0  0  0  0  0  0
  -15.0000   20.7846    0.0000 O   0  0  0  0  0  0  0  0  0  0  0  0
  -16.5000   20.7846    0.0000 C   0  0  0  0  0  3  0  0  0  0  0  0
  -17.2500   22.0836    0.0000 C   0  0  0  0  0  3  0  0  0  0  0  0
  -18.7500   22.0836    0.0000 C   0  0  0  0  0  3  0  0  0  0  0  0
  -19.5000   23.3827    0.0000 O   0  0  0  0  0  0  0  0  0  0  0  0
  -21.0000   23.3827    0.0000 C   0  0  0  0  0  0  0  0  0  0  0  0
  -21.7500   22.0836    0.0000 C   0  0  0  0  0  3  0  0  0  0  0  0
  -23.2500   22.0836    0.0000 S   0  0  0  0  0  0  0  0  0  0  0  0
  -24.0000   20.7846    0.0000 C   0  0  0  0  0  3  0  0  0  0  0  0
  -25.5000   20.7846    0.0000 C   0  0  0  0  0  0  0  0  0  0  0  0
  -26.2500   22.0836    0.0000 O   0  0  0  0  0  0  0  0  0  0  0  0
  -26.2500   19.4856    0.0000 C   0  0  0  0  0  3  0  0  0  0  0  0
  -27.7500   19.4856    0.0000 C   0  0  0  0  0  3  0  0  0  0  0  0
  -28.5000   18.1865    0.0000 C   0  0  0  0  0  0  0  0  0  0  0  0
  -30.0000   18.1865    0.0000 C   0  0  0  0  0  0  0  0  0  0  0  0
  -30.7500   16.8875    0.0000 C   0  0  0  0  0  2  0  0  0  0  0  0
  -30.7500   19.4856    0.0000 C   0  0  0  0  0  0  0  0  0  0  0  0
  -21.7500   24.6817    0.0000 C   0  0  0  0  0  0  0  0  0  0  0  0
  -23.2500   24.6817    0.0000 C   0  0  0  0  0  0  0  0  0  0  0  0
  -24.0000   23.3827    0.0000 O   0  0  0  0  0  0  0  0  0  0  0  0
  -24.0000   25.9808    0.0000 C   0  0  0  0  0  3  0  0  0  0  0  0
  -25.5000   25.9808    0.0000 O   0  0  0  0  0  0  0  0  0  0  0  0
  -26.2500   27.2798    0.0000 C   0  0  0  0  0  0  0  0  0  0  0  0
  -27.7500   27.2798    0.0000 C   0  0  0  0  0  0  0  0  0  0  0  0
  -28.5000   25.9808    0.0000 O   0  0  0  0  0  0  0  0  0  0  0  0
  -28.5000   28.5788    0.0000 C   0  0  0  0  0  3  0  0  0  0  0  0
  -30.0000   28.5788    0.0000 C   0  0  0  0  0  0  0  0  0  0  0  0
  -30.7500   29.8779    0.0000 C   0  0  0  0  0  0  0  0  0  0  0  0
  -32.2500   29.8779    0.0000 N   0  0  0  0  0  0  0  0  0  0  0  0
  -33.0000   28.5788    0.0000 O   0  0  0  0  0  0  0  0  0  0  0  0
  -34.5000   28.5788    0.0000 C   0  0  0  0  0  3  0  0  0  0  0  0
  -35.2500   27.2798    0.0000 C   0  0  0  0  0  3  0  0  0  0  0  0
  -36.7500   27.2798    0.0000 O   0  0  0  0  0  0  0  0  0  0  0  0
  -37.5000   25.9808    0.0000 C   0  0  0  0  0  3  0  0  0  0  0  0
  -39.0000   25.9808    0.0000 O   0  0  0  0  0  0  0  0  0  0  0  0
  -39.7500   24.6817    0.0000 O   0  0  0  0  0  0  0  0  0  0  0  0
  -41.2500   24.6817    0.0000 C   0  0  0  0  0  0  0  0  0  0  0  0
  -42.0000   23.3827    0.0000 C   0  0  0  0  0  2  0  0  0  0  0  0
  -42.0000   25.9808    0.0000 O   0  0  0  0  0  0  0  0  0  0  0  0
  -43.5000   25.9808    0.0000 O   0  0  0  0  0  0  0  0  0  0  0  0
  -44.2500   27.2798    0.0000 C   0  0  0  0  0  0  0  0  0  0  0  0
  -45.7500   27.2798    0.0000 C   0  0  0  0  0  3  0  0  0  0  0  0
  -46.5000   28.5788    0.0000 O   0  0  0  0  0  0  0  0  0  0  0  0
  -48.0000   28.5788    0.0000 O   0  0  0  0  0  0  0  0  0  0  0  0
  -48.7500   29.8779    0.0000 C   0  0  0  0  0  3  0  0  0  0  0  0
  -50.2500   29.8779    0.0000 C   0  0  0  0  0  3  0  0  0  0  0  0
  -51.0000   31.1769    0.0000 S   0  0  0  0  0  0  0  0  0  0  0  0
  -52.5000   31.1769    0.0000 C   0  0  0  0  0  3  0  0  0  0  0  0
  -53.2500   32.4760    0.0000 C   0  0  0  0  0  3  0  0  0  0  0  0
  -54.7500   32.4760    0.0000 O   0  0  0  0  0  0  0  0  0  0  0  0
  -55.5000   33.7750    0.0000 O   0  0  0  0  0  0  0  0  0  0  0  0
  -57.0000   33.7750    0.0000 C   0  0  0  0  0  3  0  0  0  0  0  0
  -57.7500   35.0740    0.0000 C   0  0  0  0  0  3  0  0  0  0  0  0
  -59.2500   35.0740    0.0000 N   0  0  0  0  0  0  0  0  0  0  0  0
  -60.0000   36.3731    0.0000 C   0  0  0  0  0  3  0  0  0  0  0  0
  -61.5000   36.3731    0.0000 O   0  0  0  0  0  0  0  0  0  0  0  0
  -33.0000   31.1769    0.0000 C   0  0  0  0  0  3  0  0  0  0  0  0
  -34.5000   31.1769    0.0000 C   0  0  0  0  0  3  0  0  0  0  0  0
  -35.2500   32.4760    0.0000 C   0  0  0  0  0  3  0  0  0  0  0  0
  -36.7500   32.4760    0.0000 S   0  0  0  0  0  0  0  0  0  0  0  0
  -37.5000   33.7750    0.0000 C   0  0  0  0  0  2  0  0  0  0  0  0
  2  1  1  1
  2  3  1  0
  3  4  1  0
  4  5  1  6
  4  6  1  0
  6  7  1  6
  6  8  1  0
  8  9  1  1
  8 10  1  0
 10 11  1  1
 11 12  1  0
 12 13  1  0
 13 14  1  0
 14 15  1  0
 15 16  1  0
 16 17  1  0
 17 18  1  6
 17 19  1  0
 19 20  1  6
 19 21  1  0
 21 22  1  0
 22 23  1  0
 23 24  1  0
 24 25  1  0
 25 26  1  0
 26 27  1  0
 27 28  1  0
 28 29  1  0
 29 30  1  0
 30 31  1  0
 31 32  1  0
 32 33  1  0
 33 34  1  0
 34 35  1  0
 35 36  1  0
 36 37  1  0
 37 38  1  0
 38 39  1  0
 39 40  1  6
 40 41  1  0
 41 42  1  0
 42 43  1  0
 43 44  1  0
 43 45  1  0
 45 46  1  0
 46 47  1  0
 47 48  1  0
 48 49  1  0
 48 50  1  0
 39 51  1  0
 51 52  1  0
 52 53  1  0
 52 54  1  0
 54 55  1  0
 55 56  1  0
 56 57  1  0
 57 58  1  6
 57 59  1  0
 59 60  1  0
 60 61  1  0
 61 62  1  0
 62 63  1  0
 63 64  1  0
 64 65  1  0
 65 66  1  0
 66 67  1  0
 67 68  1  0
 68 69  1  0
 69 70  1  0
 70 71  1  6
 70 72  1  0
 72 73  1  0
 73 74  1  0
 74 75  1  0
 75 76  1  0
 76 77  1  0
 77 78  1  0
 78 79  1  0
 79 80  1  0
 80 81  1  0
 81 82  1  0
 82 83  1  0
 83 84  1  0
 84 85  1  0
 85 86  1  0
 86 87  1  0
 87 88  1  0
 88 89  1  0
 62 90  1  0
 90 91  1  0
 91 92  1  0
 92 93  1  0
 93 94  1  0
 10  2  1  0
M  RAD  8  12   2  20   3  24   2  26   2  30   2  33   2  35   2  36   2
M  RAD  8  37   2  40   2  42   2  45   2  46   2  49   3  54   2  59   2
M  RAD  8  64   2  65   2  67   2  71   3  75   2  78   2  79   2  81   2
M  RAD  8  82   2  85   2  86   2  88   2  90   2  91   2  92   2  94   3
M  END
$$$$
