
     RDKit          3D

  6  5  0  0  0  0  0  0  0  0999 V2000
    2.6879    0.4989    0.0870 C   0  0  0  0  0  0  0  0  0  0  0  0
    1.3714    0.2829   -0.6052 C   0  0  0  0  0  0  0  0  0  0  0  0
    0.5125   -0.5135   -0.0174 C   0  0  0  0  0  0  0  0  0  0  0  0
   -0.8248   -0.8621   -0.5157 C   0  0  0  0  0  0  0  0  0  0  0  0
   -1.9277   -0.4600    0.4444 C   0  0  0  0  0  0  0  0  0  0  0  0
   -1.8193    1.0538    0.6069 C   0  0  0  0  0  0  0  0  0  0  0  0
  1  2  1  0
  2  3  2  3
  3  4  1  0
  4  5  1  0
  5  6  1  0
M  END
$$$$
