
     RDKit          3D

 27 27  0  0  0  0  0  0  0  0999 V2000
    7.8217   -0.7518    0.1342 C   0  0  0  0  0  0  0  0  0  0  0  0
    6.8989    0.3912    0.4558 C   0  0  0  0  0  0  0  0  0  0  0  0
    7.6564    1.6799    0.5066 C   0  0  0  0  0  0  0  0  0  0  0  0
    5.7785    0.4531   -0.5720 C   0  0  0  0  0  0  0  0  0  0  0  0
    4.9913   -0.8393   -0.5541 C   0  0  0  0  0  0  0  0  0  0  0  0
    3.8879   -0.7413   -1.5868 C   0  0  0  0  0  0  0  0  0  0  0  0
    3.0734   -2.0182   -1.6017 C   0  0  1  0  0  0  0  0  0  0  0  0
    3.9847   -3.1711   -1.9454 C   0  0  0  0  0  0  0  0  0  0  0  0
    2.5031   -2.1778   -0.1949 C   0  0  0  0  0  3  0  0  0  0  0  0
    1.6357   -1.0248    0.1882 C   0  0  0  0  0  0  0  0  0  0  0  0
    0.4520   -0.8530   -0.7405 C   0  0  0  0  0  0  0  0  0  0  0  0
   -0.3613    0.3362   -0.2693 C   0  0  2  0  0  0  0  0  0  0  0  0
    0.5536    1.5450   -0.3190 C   0  0  0  0  0  0  0  0  0  0  0  0
   -0.7452    0.0756    1.1632 C   0  0  1  0  0  0  0  0  0  0  0  0
   -1.5573    1.1662    1.7766 C   0  0  0  0  0  0  0  0  0  0  0  0
   -2.6075    1.7396    0.8985 C   0  0  1  0  0  0  0  0  0  0  0  0
   -2.3268    1.6721   -0.5603 C   0  0  0  0  0  3  0  0  0  0  0  0
   -3.4886    2.2951   -1.3070 C   0  0  0  0  0  0  0  0  0  0  0  0
   -4.7614    1.5558   -1.0101 C   0  0  0  0  0  0  0  0  0  0  0  0
   -5.9092    2.1774   -1.7527 C   0  0  0  0  0  0  0  0  0  0  0  0
   -7.0994    1.5327   -1.5115 O   0  0  0  0  0  0  0  0  0  0  0  0
   -4.0095    1.4125    1.2873 C   0  0  0  0  0  0  0  0  0  0  0  0
   -4.2782   -0.0389    1.3614 C   0  0  0  0  0  0  0  0  0  0  0  0
   -3.7321   -1.2017    1.0242 C   0  0  0  0  0  0  0  0  0  0  0  0
   -4.5635   -2.3660    1.4046 C   0  0  0  0  0  2  0  0  0  0  0  0
   -2.4553   -1.5544    0.3432 C   0  0  0  0  0  0  0  0  0  0  0  0
   -1.3419   -1.2941    1.3577 C   0  0  0  0  0  0  0  0  0  0  0  0
  1  2  1  0
  2  3  1  0
  2  4  1  0
  4  5  1  0
  5  6  1  0
  6  7  1  0
  7  8  1  1
  7  9  1  0
  9 10  1  0
 10 11  1  0
 11 12  1  0
 12 13  1  1
 12 14  1  0
 14 15  1  6
 15 16  1  0
 16 17  1  6
 17 18  1  0
 18 19  1  0
 19 20  1  0
 20 21  1  0
 16 22  1  0
 22 23  1  0
 23 24  2  3
 24 25  1  0
 24 26  1  0
 26 27  1  0
 27 14  1  0
M  RAD  3   9   2  17   2  25   3
M  END
$$$$
