
     RDKit          3D

 24 27  0  0  0  0  0  0  0  0999 V2000
   -2.5329    4.2504   -0.9875 O   0  0  0  0  0  0  0  0  0  0  0  0
   -2.5434    3.0869   -0.4463 C   0  0  0  0  0  0  0  0  0  0  0  0
   -3.5283    2.2112   -1.0136 N   0  0  0  0  0  0  0  0  0  0  0  0
   -4.1953    1.1701   -0.2105 C   0  0  0  0  0  0  0  0  0  0  0  0
   -3.1665    0.1339    0.0092 C   0  0  0  0  0  0  0  0  0  0  0  0
   -2.9140   -0.3006    1.2769 C   0  0  0  0  0  0  0  0  0  0  0  0
   -1.9191   -1.2654    1.5006 C   0  0  0  0  0  0  0  0  0  0  0  0
   -1.2171   -1.7527    0.4242 C   0  0  0  0  0  0  0  0  0  0  0  0
   -0.2258   -2.7078    0.6656 O   0  0  0  0  0  0  0  0  0  0  0  0
   -1.4909   -1.3000   -0.8493 C   0  0  0  0  0  0  0  0  0  0  0  0
   -2.4700   -0.3516   -1.0621 C   0  0  0  0  0  0  0  0  0  0  0  0
   -1.7070    2.6380    0.6023 C   0  0  0  0  0  0  0  0  0  0  0  0
   -0.5709    2.0600    0.6709 C   0  0  0  0  0  0  0  0  0  0  0  0
    0.5407    1.5253   -0.5710 S   0  0  0  0  0  0  0  0  0  0  0  0
    2.1368    1.1480    0.1313 C   0  0  0  0  0  0  0  0  0  0  0  0
    3.2949    1.5709   -0.6685 C   0  0  0  0  0  0  0  0  0  0  0  0
    4.1228    0.5529   -0.8012 C   0  0  0  0  0  0  0  0  0  0  0  0
    3.5506   -0.5873   -0.0989 C   0  0  0  0  0  0  0  0  0  0  0  0
    4.1812   -1.9412    0.0030 C   0  0  0  0  0  0  0  0  0  0  0  0
    2.3951   -0.2470    0.4413 C   0  0  0  0  0  0  0  0  0  0  0  0
    1.4496   -1.0835    1.2365 C   0  0  0  0  0  0  0  0  0  0  0  0
    1.1084   -2.3009    0.7517 C   0  0  0  0  0  0  0  0  0  0  0  0
    2.1787   -3.5913    0.1451 S   0  0  0  0  0  0  0  0  0  0  0  0
    3.5223   -2.9184   -0.6945 O   0  0  0  0  0  0  0  0  0  0  0  0
  1  2  2  0
  2  3  1  0
  3  4  1  0
  4  5  1  0
  5  6  2  0
  6  7  1  0
  7  8  2  0
  8  9  1  0
  8 10  1  0
 10 11  2  0
  2 12  1  0
 12 13  2  3
 13 14  1  0
 14 15  1  0
 15 16  1  0
 16 17  2  0
 17 18  1  0
 18 19  1  0
 18 20  2  0
 20 21  1  0
 21 22  2  0
 22 23  1  0
 23 24  1  0
 11  5  1  0
 22  9  1  0
 20 15  1  0
 24 19  1  0
M  END
$$$$
