
     RDKit          3D

 11 10  0  0  0  0  0  0  0  0999 V2000
    3.2471   -0.6171    0.5255 O   0  0  0  0  0  0  0  0  0  0  0  0
    3.2292    0.7492    0.3351 C   0  0  0  0  0  0  0  0  0  0  0  0
    1.8213    1.2531    0.4789 C   0  0  0  0  0  3  0  0  0  0  0  0
    0.9205    0.1714    0.7694 N   0  0  0  0  0  0  0  0  0  0  0  0
    0.1847   -0.1573   -0.4304 C   0  0  0  0  0  3  0  0  0  0  0  0
   -0.8686   -1.1834   -0.0762 C   0  0  2  0  0  0  0  0  0  0  0  0
   -1.6115   -1.5359   -1.2084 O   0  0  0  0  0  0  0  0  0  0  0  0
   -1.7943   -0.5954    0.9450 C   0  0  1  0  0  0  0  0  0  0  0  0
   -1.0919   -0.2330    2.0848 O   0  0  0  0  0  0  0  0  0  0  0  0
   -2.4925    0.5983    0.3343 C   0  0  0  0  0  3  0  0  0  0  0  0
   -1.5440    1.5501   -0.0484 O   0  0  0  0  0  0  0  0  0  0  0  0
  1  2  1  0
  2  3  1  0
  3  4  1  0
  4  5  1  0
  5  6  1  0
  6  7  1  6
  6  8  1  0
  8  9  1  1
  8 10  1  0
 10 11  1  0
M  RAD  3   3   2   5   2  10   2
M  END
$$$$
