
     RDKit          3D

 16 15  0  0  0  0  0  0  0  0999 V2000
    3.7346    0.9749   -1.4743 C   0  0  0  0  0  0  0  0  0  0  0  0
    3.6494    0.2428   -0.1195 C   0  0  0  0  0  0  0  0  0  0  0  0
    5.0487    0.4301    0.4753 C   0  0  0  0  0  0  0  0  0  0  0  0
    3.5447   -1.2151   -0.4467 C   0  0  0  0  0  0  0  0  0  0  0  0
    2.6409    0.8231    0.7683 C   0  0  0  0  0  0  0  0  0  0  0  0
    1.2534    0.9057    0.4237 C   0  0  0  0  0  0  0  0  0  0  0  0
    0.4779   -0.3022    0.2193 C   0  0  0  0  0  0  0  0  0  0  0  0
    0.9942   -1.5022    0.4404 C   0  0  0  0  0  0  0  0  0  0  0  0
   -0.9454   -0.2819   -0.2489 C   0  0  0  0  0  0  0  0  0  0  0  0
   -0.9611    0.4138   -1.6154 C   0  0  0  0  0  0  0  0  0  0  0  0
   -1.3857   -1.6965   -0.4965 C   0  0  0  0  0  0  0  0  0  0  0  0
   -1.8377    0.4910    0.6598 C   0  0  0  0  0  0  0  0  0  0  0  0
   -3.1766    0.4531    0.1292 N   0  0  0  0  0  0  0  0  0  0  0  0
   -3.6577    1.4612   -0.8022 C   0  0  0  0  0  0  0  0  0  0  0  0
   -4.1052   -0.5729    0.4860 C   0  0  0  0  0  0  0  0  0  0  0  0
   -5.2743   -0.6251    0.0365 O   0  0  0  0  0  0  0  0  0  0  0  0
  1  2  1  0
  2  3  1  0
  2  4  1  0
  2  5  1  0
  5  6  1  0
  6  7  1  0
  7  8  2  0
  7  9  1  0
  9 10  1  0
  9 11  1  0
  9 12  1  0
 12 13  1  0
 13 14  1  0
 13 15  1  0
 15 16  2  0
M  END
$$$$
