
     RDKit          2D

 73 75  0  0  0  0  0  0  0  0999 V2000
   18.9937   -0.9541    0.0000 C   0  0  0  0  0  0  0  0  0  0  0  0
   17.6234   -1.5642    0.0000 O   0  0  0  0  0  0  0  0  0  0  0  0
   16.4099   -0.6826    0.0000 C   0  0  0  0  0  3  0  0  0  0  0  0
   15.0395   -1.2927    0.0000 O   0  0  0  0  0  0  0  0  0  0  0  0
   13.8260   -0.4110    0.0000 C   0  0  0  0  0  0  0  0  0  0  0  0
   13.9828    1.0808    0.0000 C   0  0  0  0  0  0  0  0  0  0  0  0
   12.4557   -1.0211    0.0000 O   0  0  0  0  0  0  0  0  0  0  0  0
   12.2989   -2.5129    0.0000 C   0  0  0  0  0  0  0  0  0  0  0  0
   10.9286   -3.1230    0.0000 N   0  0  0  0  0  0  0  0  0  0  0  0
    9.7151   -2.2413    0.0000 C   0  0  0  0  0  3  0  0  0  0  0  0
    8.3447   -2.8514    0.0000 C   0  0  0  0  0  0  0  0  0  0  0  0
    7.1312   -1.9697    0.0000 C   0  0  0  0  0  3  0  0  0  0  0  0
    7.2880   -0.4779    0.0000 O   0  0  0  0  0  0  0  0  0  0  0  0
    5.7609   -2.5798    0.0000 C   0  0  0  0  0  0  0  0  0  0  0  0
    4.5474   -1.6982    0.0000 C   0  0  0  0  0  3  0  0  0  0  0  0
    3.1771   -2.3083    0.0000 O   0  0  0  0  0  0  0  0  0  0  0  0
    1.9635   -1.4266    0.0000 C   0  0  0  0  0  0  0  0  0  0  0  0
    2.4271    0.0000    0.0000 O   0  0  0  0  0  0  0  0  0  0  0  0
    1.9635    1.4266    0.0000 C   0  0  0  0  0  0  0  0  0  0  0  0
    3.1771    2.3083    0.0000 O   0  0  0  0  0  0  0  0  0  0  0  0
    0.7500    2.3083    0.0000 O   0  0  0  0  0  0  0  0  0  0  0  0
   -0.7500    2.3083    0.0000 C   0  0  0  0  0  3  0  0  0  0  0  0
   -1.9635    1.4266    0.0000 C   0  0  0  0  0  3  0  0  0  0  0  0
   -2.4271    0.0000    0.0000 C   0  0  0  0  0  3  0  0  0  0  0  0
   -1.9635   -1.4266    0.0000 O   0  0  0  0  0  0  0  0  0  0  0  0
   -0.7500   -2.3083    0.0000 C   0  0  0  0  0  0  0  0  0  0  0  0
   -1.2135   -3.7348    0.0000 O   0  0  0  0  0  0  0  0  0  0  0  0
    0.7500   -2.3083    0.0000 C   0  0  0  0  0  0  0  0  0  0  0  0
    1.2135   -3.7348    0.0000 C   0  0  0  0  0  0  0  0  0  0  0  0
    2.6401   -4.1984    0.0000 O   0  0  0  0  0  0  0  0  0  0  0  0
    2.6401   -5.6984    0.0000 N   0  0  0  0  0  0  0  0  0  0  0  0
    1.2135   -6.1619    0.0000 C   0  0  0  0  0  3  0  0  0  0  0  0
    0.3318   -4.9484    0.0000 C   0  0  0  0  0  0  0  0  0  0  0  0
   -1.1682   -4.9484    0.0000 C   0  0  0  0  0  0  0  0  0  0  0  0
   -1.9182   -6.2474    0.0000 O   0  0  0  0  0  0  0  0  0  0  0  0
   -3.4182   -6.2474    0.0000 O   0  0  0  0  0  0  0  0  0  0  0  0
   -4.1682   -7.5464    0.0000 C   0  0  0  0  0  3  0  0  0  0  0  0
   -5.6682   -7.5464    0.0000 C   0  0  0  0  0  0  0  0  0  0  0  0
   -6.4182   -6.2474    0.0000 O   0  0  0  0  0  0  0  0  0  0  0  0
   -6.4182   -8.8455    0.0000 C   0  0  0  0  0  3  0  0  0  0  0  0
   -7.9182   -8.8455    0.0000 O   0  0  0  0  0  0  0  0  0  0  0  0
   -8.6682  -10.1445    0.0000 C   0  0  0  0  0  3  0  0  0  0  0  0
  -10.1682  -10.1445    0.0000 O   0  0  0  0  0  0  0  0  0  0  0  0
  -10.9182  -11.4436    0.0000 C   0  0  0  0  0  2  0  0  0  0  0  0
   13.5124   -3.3946    0.0000 C   0  0  0  0  0  0  0  0  0  0  0  0
   14.8827   -2.7844    0.0000 O   0  0  0  0  0  0  0  0  0  0  0  0
   16.0963   -3.6661    0.0000 C   0  0  0  0  0  3  0  0  0  0  0  0
   17.4666   -3.0560    0.0000 O   0  0  0  0  0  0  0  0  0  0  0  0
   18.6801   -3.9377    0.0000 O   0  0  0  0  0  0  0  0  0  0  0  0
   20.0504   -3.3276    0.0000 C   0  0  0  0  0  3  0  0  0  0  0  0
   21.2640   -4.2093    0.0000 C   0  0  0  0  0  0  0  0  0  0  0  0
   21.1072   -5.7011    0.0000 O   0  0  0  0  0  0  0  0  0  0  0  0
   22.6343   -3.5992    0.0000 C   0  0  0  0  0  3  0  0  0  0  0  0
   23.8478   -4.4808    0.0000 O   0  0  0  0  0  0  0  0  0  0  0  0
   25.2181   -3.8707    0.0000 C   0  0  0  0  0  0  0  0  0  0  0  0
   26.4316   -4.7524    0.0000 N   0  0  0  0  0  0  0  0  0  0  0  0
   27.8020   -4.1423    0.0000 C   0  0  0  0  0  0  0  0  0  0  0  0
   29.0155   -5.0240    0.0000 O   0  0  0  0  0  0  0  0  0  0  0  0
   27.9588   -2.6505    0.0000 O   0  0  0  0  0  0  0  0  0  0  0  0
   29.3291   -2.0404    0.0000 N   0  0  0  0  0  0  0  0  0  0  0  0
   29.4859   -0.5486    0.0000 N   0  0  0  0  0  0  0  0  0  0  0  0
   30.8562    0.0615    0.0000 C   0  0  0  0  0  3  0  0  0  0  0  0
   31.0130    1.5532    0.0000 C   0  0  0  0  0  0  0  0  0  0  0  0
   32.3833    2.1633    0.0000 C   0  0  0  0  0  0  0  0  0  0  0  0
   32.4282    3.6627    0.0000 N   0  0  0  0  0  0  0  0  0  0  0  0
   33.6284    4.5624    0.0000 N   0  0  0  0  0  0  0  0  0  0  0  0
   35.0801    4.1850    0.0000 O   0  0  0  0  0  0  0  0  0  0  0  0
   35.6902    2.8147    0.0000 C   0  0  0  0  0  3  0  0  0  0  0  0
   34.9993    1.4833    0.0000 C   0  0  0  0  0  0  0  0  0  0  0  0
   35.8990    0.2831    0.0000 C   0  0  0  0  0  0  0  0  0  0  0  0
   35.3095   -1.0962    0.0000 O   0  0  0  0  0  0  0  0  0  0  0  0
   36.2092   -2.2964    0.0000 C   0  0  0  0  0  2  0  0  0  0  0  0
   33.5275    1.1935    0.0000 O   0  0  0  0  0  0  0  0  0  0  0  0
  1  2  1  0
  2  3  1  0
  3  4  1  0
  4  5  1  0
  5  6  1  1
  5  7  1  0
  7  8  1  0
  8  9  1  0
  9 10  1  0
 10 11  1  0
 11 12  1  0
 12 13  1  0
 12 14  1  0
 14 15  1  0
 15 16  1  0
 17 16  1  6
 17 18  1  0
 18 19  1  0
 19 20  1  1
 19 21  1  0
 21 22  1  0
 22 23  1  0
 23 24  1  0
 24 25  1  0
 25 26  1  0
 26 27  1  1
 28 26  1  6
 28 29  1  0
 29 30  1  1
 30 31  1  0
 31 32  1  0
 32 33  1  0
 33 34  1  1
 34 35  1  0
 35 36  1  0
 36 37  1  0
 37 38  1  0
 38 39  1  6
 38 40  1  0
 40 41  1  0
 41 42  1  0
 42 43  1  0
 43 44  1  0
  8 45  1  6
 45 46  1  0
 46 47  1  0
 47 48  1  0
 48 49  1  0
 49 50  1  0
 50 51  1  0
 51 52  1  1
 51 53  1  0
 53 54  1  0
 54 55  1  0
 55 56  1  0
 56 57  1  0
 57 58  1  6
 57 59  1  0
 59 60  1  0
 60 61  1  0
 61 62  1  0
 62 63  1  0
 64 63  1  6
 64 65  1  0
 65 66  1  0
 66 67  1  0
 67 68  1  0
 68 69  1  0
 69 70  1  1
 70 71  1  0
 71 72  1  0
 64 73  1  0
 28 17  1  0
 33 29  1  0
 73 69  1  0
M  RAD  8   3   2  10   2  12   2  15   2  22   2  23   2  24   2  32   2
M  RAD  8  37   2  40   2  42   2  44   3  47   2  50   2  53   2  62   2
M  RAD  2  68   2  72   3
M  END
$$$$
