
     RDKit          3D

 29 29  0  0  0  0  0  0  0  0999 V2000
    7.9384   -1.2755    0.9310 C   0  0  0  0  0  0  0  0  0  0  0  0
    7.8803    0.2378    0.7860 C   0  0  0  0  0  0  0  0  0  0  0  0
    7.4693    0.8350    2.1089 C   0  0  0  0  0  0  0  0  0  0  0  0
    6.8064    0.5612   -0.2301 C   0  0  0  0  0  0  0  0  0  0  0  0
    5.4965   -0.0028    0.3187 C   0  0  0  0  0  0  0  0  0  0  0  0
    4.4260    0.3170   -0.6894 C   0  0  0  0  0  0  0  0  0  0  0  0
    3.1126   -0.2319   -0.1702 C   0  0  1  0  0  0  0  0  0  0  0  0
    2.8059    0.4274    1.1612 C   0  0  0  0  0  0  0  0  0  0  0  0
    1.9985   -0.0719   -1.1646 C   0  0  0  0  0  3  0  0  0  0  0  0
    0.7364   -0.6317   -0.5916 C   0  0  1  0  0  0  0  0  0  0  0  0
    0.2978    0.0298    0.6723 C   0  0  0  0  0  0  0  0  0  0  0  0
   -0.5332   -0.9726    1.4635 C   0  0  0  0  0  0  0  0  0  0  0  0
   -1.5237   -1.5953    0.5205 C   0  0  0  0  0  0  0  0  0  0  0  0
    0.3697   -2.0908    1.9666 C   0  0  0  0  0  0  0  0  0  0  0  0
   -1.1555   -0.2388    2.5794 C   0  0  0  0  0  0  0  0  0  0  0  0
   -2.3929    0.1932    2.4607 C   0  0  0  0  0  0  0  0  0  0  0  0
   -3.1844   -0.0416    1.2214 C   0  0  0  0  0  0  0  0  0  0  0  0
   -4.5986   -0.2896    1.5311 C   0  0  0  0  0  0  0  0  0  0  0  0
   -5.5885   -0.1423    0.6785 C   0  0  0  0  0  0  0  0  0  0  0  0
   -6.9186   -0.4024    1.0596 O   0  0  0  0  0  0  0  0  0  0  0  0
   -5.2582    0.3075   -0.7001 C   0  0  0  0  0  0  0  0  0  0  0  0
   -6.3771   -0.5697   -1.8499 S   0  0  0  0  0  0  0  0  0  0  0  0
   -3.9614   -0.0822   -1.0324 O   0  0  0  0  0  0  0  0  0  0  0  0
   -3.3701    0.7155   -2.4075 S   0  0  0  0  0  0  0  0  0  0  0  0
   -2.5204    2.2641   -2.0146 C   0  0  0  0  0  0  0  0  0  0  0  0
   -0.7192    2.0493   -2.0089 S   0  0  0  0  0  0  0  0  0  0  0  0
   -0.2537    0.4100   -2.6426 C   0  0  0  0  0  0  0  0  0  0  0  0
   -0.4032   -0.6550   -1.5785 C   0  0  1  0  0  0  0  0  0  0  0  0
   -0.5793   -2.2704   -2.3789 S   0  0  0  0  0  0  0  0  0  0  0  0
  1  2  1  0
  2  3  1  0
  2  4  1  0
  4  5  1  0
  5  6  1  0
  6  7  1  0
  7  8  1  1
  7  9  1  0
 10  9  1  6
 10 11  1  0
 11 12  1  0
 12 13  1  0
 12 14  1  0
 12 15  1  0
 15 16  2  3
 16 17  1  0
 17 18  1  0
 18 19  2  3
 19 20  1  0
 19 21  1  0
 21 22  1  0
 21 23  1  0
 23 24  1  0
 24 25  1  0
 25 26  1  0
 26 27  1  0
 27 28  1  0
 28 29  1  6
 28 10  1  0
M  RAD  1   9   2
M  END
$$$$
