
     RDKit          2D

 73 76  0  0  0  0  0  0  0  0999 V2000
   -8.7100   -6.7782    0.0000 C   0  0  0  0  0  0  0  0  0  0  0  0
   -9.2413   -5.3754    0.0000 C   0  0  0  0  0  0  0  0  0  0  0  0
  -10.7217   -5.1341    0.0000 C   0  0  0  0  0  0  0  0  0  0  0  0
   -8.2921   -4.2139    0.0000 C   0  0  0  0  0  0  0  0  0  0  0  0
   -8.8233   -2.8112    0.0000 C   0  0  0  0  0  0  0  0  0  0  0  0
   -7.8741   -1.6497    0.0000 C   0  0  0  0  0  0  0  0  0  0  0  0
   -8.4054   -0.2469    0.0000 C   0  0  0  0  0  0  0  0  0  0  0  0
   -9.8858   -0.0056    0.0000 C   0  0  0  0  0  0  0  0  0  0  0  0
   -7.4562    0.9145    0.0000 C   0  0  0  0  0  3  0  0  0  0  0  0
   -5.9757    0.6732    0.0000 C   0  0  0  0  0  0  0  0  0  0  0  0
   -5.8557   -0.8220    0.0000 C   0  0  0  0  0  0  0  0  0  0  0  0
   -5.0546   -2.0901    0.0000 C   0  0  0  0  0  0  0  0  0  0  0  0
   -6.0942   -3.1714    0.0000 C   0  0  0  0  0  0  0  0  0  0  0  0
   -5.6775   -4.6124    0.0000 C   0  0  0  0  0  0  0  0  0  0  0  0
   -6.7171   -5.6937    0.0000 C   0  0  0  0  0  0  0  0  0  0  0  0
   -6.3005   -7.1347    0.0000 C   0  0  0  0  0  2  0  0  0  0  0  0
   -3.7559   -2.8407    0.0000 C   0  0  0  0  0  0  0  0  0  0  0  0
   -2.2571   -2.9018    0.0000 N   0  0  0  0  0  3  0  0  0  0  0  0
   -0.9017   -2.2594    0.0000 C   0  0  0  0  0  0  0  0  0  0  0  0
   -0.0000   -1.0607    0.0000 C   0  0  0  0  0  0  0  0  0  0  0  0
    1.0607    0.0000    0.0000 C   0  0  0  0  0  0  0  0  0  0  0  0
    2.5607    0.0000    0.0000 O   0  0  0  0  0  0  0  0  0  0  0  0
    0.0000    1.0607    0.0000 C   0  0  0  0  0  0  0  0  0  0  0  0
   -1.0607    0.0000    0.0000 C   0  0  0  0  0  0  0  0  0  0  0  0
   -2.1213    1.0607    0.0000 C   0  0  0  0  0  0  0  0  0  0  0  0
   -3.6213    1.0607    0.0000 C   0  0  0  0  0  0  0  0  0  0  0  0
   -1.0607    2.1213    0.0000 C   0  0  0  0  0  0  0  0  0  0  0  0
   -2.7549    3.3004    0.0000 C   0  0  0  0  0  0  0  0  0  0  0  0
   -4.2248    3.0011    0.0000 C   0  0  0  0  0  0  0  0  0  0  0  0
   -5.3871    2.0529    0.0000 C   0  0  0  0  0  0  0  0  0  0  0  0
   -6.5859    2.9546    0.0000 N   0  0  0  0  0  0  0  0  0  0  0  0
   -6.4044    4.4436    0.0000 C   0  0  0  0  0  0  0  0  0  0  0  0
   -7.6031    5.3452    0.0000 C   0  0  0  0  0  0  0  0  0  0  0  0
   -5.0241    5.0309    0.0000 C   0  0  0  0  0  0  0  0  0  0  0  0
   -4.8426    6.5199    0.0000 N   0  0  0  0  0  0  0  0  0  0  0  0
   -3.4624    7.1072    0.0000 C   0  0  0  0  0  0  0  0  0  0  0  0
   -3.2809    8.5962    0.0000 C   0  0  0  0  0  0  0  0  0  0  0  0
   -1.9006    9.1835    0.0000 C   0  0  0  0  0  0  0  0  0  0  0  0
   -1.7192   10.6724    0.0000 C   0  0  0  0  0  0  0  0  0  0  0  0
   -0.3389   11.2598    0.0000 C   0  0  0  0  0  2  0  0  0  0  0  0
   -2.9179   11.5741    0.0000 C   0  0  0  0  0  0  0  0  0  0  0  0
   -2.7364   13.0631    0.0000 C   0  0  0  0  0  0  0  0  0  0  0  0
   -3.9351   13.9648    0.0000 C   0  0  0  0  0  2  0  0  0  0  0  0
   -1.3562   13.6504    0.0000 C   0  0  0  0  0  0  0  0  0  0  0  0
   -1.1747   15.1394    0.0000 C   0  0  0  0  0  0  0  0  0  0  0  0
    0.2056   15.7267    0.0000 C   0  0  0  0  0  2  0  0  0  0  0  0
   -2.3734   16.0410    0.0000 C   0  0  0  0  0  0  0  0  0  0  0  0
   -2.1919   17.5300    0.0000 C   0  0  0  0  0  0  0  0  0  0  0  0
   -3.3907   18.4317    0.0000 C   0  0  0  0  0  0  0  0  0  0  0  0
   -4.7709   17.8444    0.0000 N   0  0  0  0  0  0  0  0  0  0  0  0
   -3.2092   19.9207    0.0000 C   0  0  0  0  0  0  0  0  0  0  0  0
   -4.4079   20.8223    0.0000 C   0  0  0  0  0  0  0  0  0  0  0  0
   -4.2264   22.3113    0.0000 C   0  0  0  0  0  0  0  0  0  0  0  0
   -5.4252   23.2130    0.0000 C   0  0  0  0  0  0  0  0  0  0  0  0
   -2.8462   22.8986    0.0000 C   0  0  0  0  0  0  0  0  0  0  0  0
   -2.6647   24.3876    0.0000 C   0  0  0  0  0  0  0  0  0  0  0  0
   -1.2844   24.9749    0.0000 C   0  0  0  0  0  0  0  0  0  0  0  0
   -1.1029   26.4639    0.0000 C   0  0  0  0  0  0  0  0  0  0  0  0
    0.2773   27.0512    0.0000 C   0  0  0  0  0  0  0  0  0  0  0  0
   -2.3017   27.3656    0.0000 C   0  0  0  0  0  0  0  0  0  0  0  0
   -2.1202   28.8546    0.0000 C   0  0  0  0  0  0  0  0  0  0  0  0
   -3.3189   29.7562    0.0000 C   0  0  0  0  0  0  0  0  0  0  0  0
   -3.1374   31.2452    0.0000 C   0  0  0  0  0  0  0  0  0  0  0  0
   -4.3362   32.1469    0.0000 C   0  0  0  0  0  0  0  0  0  0  0  0
   -4.1547   33.6359    0.0000 C   0  0  0  0  0  0  0  0  0  0  0  0
   -5.3534   34.5375    0.0000 C   0  0  0  0  0  0  0  0  0  0  0  0
   -4.6992   29.1689    0.0000 C   0  0  0  0  0  0  0  0  0  0  0  0
   -5.8979   30.0706    0.0000 C   0  0  0  0  0  0  0  0  0  0  0  0
   -7.3869   30.2521    0.0000 C   0  0  0  0  0  0  0  0  0  0  0  0
   -6.4852   31.4508    0.0000 C   0  0  0  0  0  0  0  0  0  0  0  0
   -6.3037   32.9398    0.0000 C   0  0  0  0  0  0  0  0  0  0  0  0
   -7.5025   33.8415    0.0000 C   0  0  0  0  0  0  0  0  0  0  0  0
   -4.9235   33.5271    0.0000 C   0  0  0  0  0  0  0  0  0  0  0  0
  1  2  1  0
  2  3  1  0
  2  4  1  0
  4  5  1  0
  5  6  1  0
  6  7  1  0
  7  8  1  1
  7  9  1  0
  9 10  1  0
 10 11  1  0
 11 12  1  0
 12 13  1  1
 13 14  1  0
 14 15  1  0
 15 16  1  0
 12 17  1  0
 17 18  2  3
 18 19  1  0
 19 20  1  0
 20 21  1  0
 21 22  1  0
 23 21  1  1
 23 24  1  0
 24 25  1  0
 25 26  1  0
 25 27  1  0
 27 28  1  0
 28 29  1  0
 29 30  1  0
 30 31  1  6
 31 32  1  0
 32 33  1  6
 32 34  1  0
 34 35  1  0
 35 36  1  0
 36 37  1  0
 37 38  1  0
 38 39  1  0
 39 40  1  1
 39 41  1  0
 41 42  1  0
 42 43  1  0
 42 44  1  0
 44 45  1  0
 45 46  1  0
 45 47  1  0
 47 48  2  3
 48 49  1  0
 49 50  1  6
 49 51  1  0
 51 52  1  0
 52 53  1  0
 53 54  1  1
 53 55  1  0
 55 56  1  0
 56 57  1  0
 57 58  1  0
 58 59  1  0
 58 60  1  0
 60 61  1  0
 61 62  1  0
 62 63  1  0
 63 64  1  0
 64 65  1  0
 65 66  1  0
 62 67  1  0
 68 67  1  6
 68 69  1  0
 68 70  1  0
 70 71  1  1
 71 72  1  0
 71 73  1  0
 30 10  1  0
 24 20  1  0
 27 23  1  0
 70 69  1  0
M  CHG  1  18   1
M  RAD  6   9   2  16   3  18   2  40   3  43   3  46   3
M  END
$$$$
