
     RDKit          3D

 35 34  0  0  0  0  0  0  0  0999 V2000
    0.7734    1.2714   -1.4286 C   0  0  0  0  0  0  0  0  0  0  0  0
   -0.6332    1.5719   -1.0029 C   0  0  0  0  0  0  0  0  0  0  0  0
   -0.9891    2.9063   -1.6171 C   0  0  0  0  0  0  0  0  0  0  0  0
   -0.7571    1.7433    0.4893 C   0  0  0  0  0  0  0  0  0  0  0  0
   -1.5895    0.5657   -1.4965 C   0  0  0  0  0  0  0  0  0  0  0  0
   -1.4470   -0.8184   -1.0115 C   0  0  0  0  0  0  0  0  0  0  0  0
   -2.0845   -1.1706    0.2976 C   0  0  0  0  0  0  0  0  0  0  0  0
   -3.0911   -0.2171    0.6104 O   0  0  0  0  0  0  0  0  0  0  0  0
   -3.7596    0.2738   -0.5047 C   0  0  0  0  0  0  0  0  0  0  0  0
   -3.9889    1.9970   -0.2335 C   0  0  0  0  0  3  0  0  0  0  0  0
   -4.2588    1.5012    1.1703 C   0  0  0  0  0  0  0  0  0  0  0  0
   -5.8176    1.6114    1.6257 S   0  0  0  0  0  0  0  0  0  0  0  0
   -7.0156    2.1970    0.4839 C   0  0  0  0  0  0  0  0  0  0  0  0
   -5.8186   -0.4106    0.8927 C   0  0  0  0  0  3  0  0  0  0  0  0
   -7.1110   -1.0881    1.1701 C   0  0  1  0  0  0  0  0  0  0  0  0
   -8.1160   -0.2134    1.7654 C   0  0  0  0  0  2  0  0  0  0  0  0
   -7.4977   -1.8655    0.1169 O   0  0  0  0  0  0  0  0  0  0  0  0
   -8.7832   -1.4397   -0.2306 C   0  0  0  0  0  2  0  0  0  0  0  0
   -1.1845   -1.2811    1.4415 C   0  0  0  0  0  0  0  0  0  0  0  0
    0.1331   -1.9541    1.1409 C   0  0  0  0  0  0  0  0  0  0  0  0
    1.1277   -0.8655    0.7189 C   0  0  2  0  0  0  0  0  0  0  0  0
    0.6634    0.4782    1.1721 C   0  0  0  0  0  0  0  0  0  0  0  0
    1.4875   -1.0197   -0.7107 C   0  0  0  0  0  0  0  0  0  0  0  0
    2.5615    0.0142   -1.0472 C   0  0  0  0  0  0  0  0  0  0  0  0
    3.6425   -0.1350    0.0052 C   0  0  0  0  0  3  0  0  0  0  0  0
    4.3041   -1.5057   -0.1530 C   0  0  2  0  0  0  0  0  0  0  0  0
    3.3245   -2.6178   -0.1683 C   0  0  0  0  0  0  0  0  0  0  0  0
    5.2317   -1.6439    1.0294 C   0  0  0  0  0  0  0  0  0  0  0  0
    6.5191   -0.9145    0.7755 C   0  0  0  0  0  0  0  0  0  0  0  0
    7.4271   -1.8338   -0.0179 C   0  0  0  0  0  0  0  0  0  0  0  0
    6.1954    0.2645   -0.0433 N   0  0  0  0  0  0  0  0  0  0  0  0
    5.9102    1.3586    0.8970 C   0  0  0  0  0  0  0  0  0  0  0  0
    7.2959    0.7050   -0.8644 C   0  0  0  0  0  0  0  0  0  0  0  0
    8.1829    1.5221    0.0096 C   0  0  0  0  0  0  0  0  0  0  0  0
    9.1631    1.0132    0.5284 O   0  0  0  0  0  0  0  0  0  0  0  0
  1  2  1  0
  2  3  1  0
  2  4  1  0
  2  5  1  0
  5  6  1  0
  6  7  1  0
  7  8  1  0
  8  9  1  0
  9 10  1  0
 10 11  1  0
 11 12  2  3
 12 13  1  0
 12 14  1  0
 14 15  1  0
 15 16  1  6
 15 17  1  0
 17 18  1  0
  7 19  1  0
 19 20  1  0
 20 21  1  0
 21 22  1  6
 21 23  1  0
 23 24  1  0
 24 25  1  0
 25 26  1  0
 26 27  1  1
 26 28  1  0
 28 29  1  0
 29 30  1  0
 29 31  1  0
 31 32  1  0
 31 33  1  0
 33 34  1  0
 34 35  2  0
M  RAD  5  10   2  14   2  16   3  18   3  25   2
M  END
$$$$
