
     RDKit          2D

 95 95  0  0  0  0  0  0  0  0999 V2000
   20.0260    6.4952    0.0000 C   0  0  0  0  0  0  0  0  0  0  0  0
   20.7760    5.1962    0.0000 C   0  0  0  0  0  0  0  0  0  0  0  0
   22.2760    5.1962    0.0000 C   0  0  0  0  0  0  0  0  0  0  0  0
   20.0260    3.8971    0.0000 C   0  0  0  0  0  0  0  0  0  0  0  0
   20.7760    2.5981    0.0000 C   0  0  0  0  0  0  0  0  0  0  0  0
   20.0260    1.2990    0.0000 C   0  0  0  0  0  0  0  0  0  0  0  0
   20.7760    0.0000    0.0000 C   0  0  0  0  0  0  0  0  0  0  0  0
   22.2760    0.0000    0.0000 C   0  0  0  0  0  0  0  0  0  0  0  0
   20.0260   -1.2990    0.0000 C   0  0  0  0  0  3  0  0  0  0  0  0
   18.5260   -1.2990    0.0000 C   0  0  0  0  0  0  0  0  0  0  0  0
   17.7760   -2.5981    0.0000 C   0  0  0  0  0  0  0  0  0  0  0  0
   16.2760   -2.5981    0.0000 C   0  0  0  0  0  0  0  0  0  0  0  0
   16.2760   -1.0981    0.0000 C   0  0  0  0  0  0  0  0  0  0  0  0
   16.2760   -4.0981    0.0000 C   0  0  0  0  0  0  0  0  0  0  0  0
   14.7760   -2.5981    0.0000 C   0  0  0  0  0  0  0  0  0  0  0  0
   14.0260   -1.2990    0.0000 C   0  0  0  0  0  3  0  0  0  0  0  0
   12.5260   -1.2990    0.0000 C   0  0  0  0  0  3  0  0  0  0  0  0
   11.7760    0.0000    0.0000 C   0  0  0  0  0  0  0  0  0  0  0  0
   10.2760    0.0000    0.0000 C   0  0  0  0  0  0  0  0  0  0  0  0
    9.5260   -1.2990    0.0000 O   0  0  0  0  0  0  0  0  0  0  0  0
    9.5260    1.2990    0.0000 C   0  0  0  0  0  0  0  0  0  0  0  0
    8.0260    1.2990    0.0000 C   0  0  0  0  0  0  0  0  0  0  0  0
    7.2760    2.5981    0.0000 C   0  0  0  0  0  0  0  0  0  0  0  0
    8.0260    3.8971    0.0000 C   0  0  0  0  0  0  0  0  0  0  0  0
    5.7760    2.5981    0.0000 O   0  0  0  0  0  0  0  0  0  0  0  0
    5.0260    1.2990    0.0000 C   0  0  0  0  0  0  0  0  0  0  0  0
    3.5260    1.2990    0.0000 C   0  0  0  0  0  0  0  0  0  0  0  0
    2.7760    0.0000    0.0000 C   0  0  0  0  0  0  0  0  0  0  0  0
    1.2760    0.0000    0.0000 C   0  0  0  0  0  0  0  0  0  0  0  0
    0.3943    1.2135    0.0000 C   0  0  0  0  0  0  0  0  0  0  0  0
   -1.0323    0.7500    0.0000 C   0  0  0  0  0  0  0  0  0  0  0  0
   -1.0323   -0.7500    0.0000 C   0  0  0  0  0  3  0  0  0  0  0  0
    0.3943   -1.2135    0.0000 C   0  0  0  0  0  0  0  0  0  0  0  0
    0.8578   -2.6401    0.0000 C   0  0  0  0  0  0  0  0  0  0  0  0
   -0.1459   -3.7548    0.0000 C   0  0  0  0  0  0  0  0  0  0  0  0
    0.3177   -5.1814    0.0000 C   0  0  0  0  0  0  0  0  0  0  0  0
   -0.6860   -6.2961    0.0000 C   0  0  0  0  0  0  0  0  0  0  0  0
   -0.2225   -7.7227    0.0000 C   0  0  0  0  0  0  0  0  0  0  0  0
   -1.2262   -8.8374    0.0000 C   0  0  0  0  0  0  0  0  0  0  0  0
    1.2447   -8.0346    0.0000 C   0  0  0  0  0  0  0  0  0  0  0  0
    1.7082   -9.4612    0.0000 C   0  0  0  0  0  0  0  0  0  0  0  0
    3.1755   -9.7730    0.0000 C   0  0  0  0  0  0  0  0  0  0  0  0
    3.6390  -11.1996    0.0000 C   0  0  0  0  0  0  0  0  0  0  0  0
    5.1062  -11.5115    0.0000 C   0  0  0  0  0  2  0  0  0  0  0  0
    5.5697  -12.9381    0.0000 C   0  0  0  0  0  0  0  0  0  0  0  0
    7.0369  -13.2499    0.0000 C   0  0  0  0  0  0  0  0  0  0  0  0
    7.5005  -14.6765    0.0000 C   0  0  0  0  0  0  0  0  0  0  0  0
    8.9677  -14.9884    0.0000 C   0  0  0  0  0  0  0  0  0  0  0  0
    9.4312  -16.4150    0.0000 C   0  0  0  0  0  0  0  0  0  0  0  0
   10.8984  -16.7268    0.0000 C   0  0  0  0  0  0  0  0  0  0  0  0
    8.4275  -17.5297    0.0000 C   0  0  0  0  0  0  0  0  0  0  0  0
    8.8910  -18.9563    0.0000 C   0  0  0  0  0  0  0  0  0  0  0  0
    6.9603  -17.2178    0.0000 C   0  0  0  0  0  2  0  0  0  0  0  0
    5.9566  -18.3325    0.0000 C   0  0  0  0  0  0  0  0  0  0  0  0
    4.4894  -18.0207    0.0000 C   0  0  0  0  0  0  0  0  0  0  0  0
    3.4857  -19.1354    0.0000 C   0  0  0  0  0  0  0  0  0  0  0  0
    2.0185  -18.8235    0.0000 C   0  0  0  0  0  0  0  0  0  0  0  0
    3.9492  -20.5620    0.0000 C   0  0  0  0  0  0  0  0  0  0  0  0
    2.9455  -21.6767    0.0000 C   0  0  0  0  0  0  0  0  0  0  0  0
    3.4090  -23.1033    0.0000 C   0  0  0  0  0  0  0  0  0  0  0  0
    2.4053  -24.2180    0.0000 C   0  0  0  0  0  0  0  0  0  0  0  0
    2.8689  -25.6446    0.0000 C   0  0  0  0  0  2  0  0  0  0  0  0
    0.9381  -23.9061    0.0000 C   0  0  0  0  0  0  0  0  0  0  0  0
   -0.0656  -25.0208    0.0000 C   0  0  0  0  0  2  0  0  0  0  0  0
   -1.5328  -24.7090    0.0000 C   0  0  0  0  0  0  0  0  0  0  0  0
   -2.5365  -25.8237    0.0000 C   0  0  0  0  0  2  0  0  0  0  0  0
   -4.0037  -25.5118    0.0000 C   0  0  0  0  0  0  0  0  0  0  0  0
   -5.0074  -26.6265    0.0000 N   0  0  0  0  0  0  0  0  0  0  0  0
   -6.4746  -26.3147    0.0000 C   0  0  0  0  0  0  0  0  0  0  0  0
   -7.4783  -27.4294    0.0000 C   0  0  0  0  0  0  0  0  0  0  0  0
   -8.9455  -27.1175    0.0000 C   0  0  0  0  0  0  0  0  0  0  0  0
   -9.9492  -28.2322    0.0000 C   0  0  0  0  0  0  0  0  0  0  0  0
   -9.4091  -25.6909    0.0000 C   0  0  0  0  0  3  0  0  0  0  0  0
  -10.8763  -25.3791    0.0000 C   0  0  0  0  0  0  0  0  0  0  0  0
  -11.3398  -23.9525    0.0000 C   0  0  0  0  0  0  0  0  0  0  0  0
  -12.8070  -23.6406    0.0000 C   0  0  0  0  0  0  0  0  0  0  0  0
  -13.2706  -22.2140    0.0000 C   0  0  0  0  0  0  0  0  0  0  0  0
  -13.8107  -24.7553    0.0000 C   0  0  0  0  0  0  0  0  0  0  0  0
  -15.2780  -24.4435    0.0000 C   0  0  0  0  0  0  0  0  0  0  0  0
  -16.2817  -25.5582    0.0000 C   0  0  0  0  0  0  0  0  0  0  0  0
  -17.7489  -25.2463    0.0000 C   0  0  0  0  0  2  0  0  0  0  0  0
  -18.7526  -26.3610    0.0000 C   0  0  0  0  0  0  0  0  0  0  0  0
  -20.2198  -26.0492    0.0000 C   0  0  0  0  0  0  0  0  0  0  0  0
  -21.2235  -27.1639    0.0000 C   0  0  0  0  0  0  0  0  0  0  0  0
  -22.6907  -26.8520    0.0000 N   0  0  0  0  0  0  0  0  0  0  0  0
  -23.6944  -27.9667    0.0000 C   0  0  0  0  0  0  0  0  0  0  0  0
  -25.1616  -27.6549    0.0000 C   0  0  0  0  0  0  0  0  0  0  0  0
  -26.1653  -28.7696    0.0000 C   0  0  0  0  0  3  0  0  0  0  0  0
  -27.6325  -28.4577    0.0000 C   0  0  0  0  0  0  0  0  0  0  0  0
  -25.7018  -30.1962    0.0000 C   0  0  0  0  0  3  0  0  0  0  0  0
  -26.7055  -31.3109    0.0000 C   0  0  0  0  0  0  0  0  0  0  0  0
  -26.2420  -32.7375    0.0000 C   0  0  0  0  0  2  0  0  0  0  0  0
  -27.2457  -33.8522    0.0000 C   0  0  0  0  0  0  0  0  0  0  0  0
  -26.7821  -35.2788    0.0000 C   0  0  0  0  0  0  0  0  0  0  0  0
  -27.7858  -36.3935    0.0000 C   0  0  0  0  0  0  0  0  0  0  0  0
  1  2  1  0
  2  3  1  0
  2  4  1  0
  4  5  1  0
  5  6  1  0
  6  7  1  0
  7  8  1  1
  7  9  1  0
  9 10  1  0
 10 11  1  0
 11 12  1  0
 12 13  1  0
 12 14  1  0
 12 15  1  0
 15 16  1  0
 16 17  1  0
 17 18  1  0
 18 19  1  0
 19 20  1  0
 19 21  1  0
 21 22  1  0
 22 23  1  0
 23 24  1  0
 23 25  1  0
 25 26  1  0
 26 27  1  0
 27 28  1  0
 28 29  1  0
 29 30  1  0
 30 31  1  0
 31 32  1  0
 32 33  1  0
 33 34  1  0
 34 35  1  0
 35 36  1  0
 36 37  1  0
 37 38  1  0
 38 39  1  0
 38 40  1  0
 40 41  1  0
 41 42  1  0
 42 43  1  0
 43 44  1  0
 44 45  1  0
 45 46  1  0
 46 47  1  0
 47 48  1  0
 48 49  1  0
 49 50  1  0
 49 51  1  0
 51 52  1  0
 51 53  1  0
 53 54  1  0
 54 55  1  0
 55 56  1  0
 56 57  1  0
 56 58  1  0
 58 59  1  0
 59 60  1  0
 60 61  1  0
 61 62  1  0
 61 63  1  0
 63 64  1  0
 64 65  1  0
 65 66  1  0
 66 67  1  0
 67 68  1  0
 68 69  1  0
 69 70  1  0
 70 71  1  0
 71 72  1  0
 71 73  1  0
 73 74  1  0
 74 75  1  0
 75 76  1  0
 76 77  1  0
 76 78  1  0
 78 79  1  0
 79 80  1  0
 80 81  1  0
 81 82  1  0
 82 83  1  0
 83 84  1  0
 84 85  1  0
 85 86  1  0
 86 87  1  0
 87 88  1  0
 88 89  1  0
 88 90  1  0
 90 91  1  0
 91 92  1  0
 92 93  1  0
 93 94  1  0
 94 95  1  0
 33 29  1  0
M  RAD  8   9   2  16   2  17   2  32   2  44   3  53   3  62   3  64   3
M  RAD  6  66   3  73   2  81   3  88   2  90   2  92   3
M  END
$$$$
