
     RDKit          2D

 88 87  0  0  0  0  0  0  0  0999 V2000
    0.0000    0.0000    0.0000 C   0  0  0  0  0  0  0  0  0  0  0  0
    1.2990    0.7500    0.0000 C   0  0  0  0  0  0  0  0  0  0  0  0
    2.5981   -0.0000    0.0000 C   0  0  0  0  0  0  0  0  0  0  0  0
    1.2990    2.2500    0.0000 C   0  0  0  0  0  0  0  0  0  0  0  0
    2.5981    3.0000    0.0000 C   0  0  0  0  0  0  0  0  0  0  0  0
    2.5981    4.5000    0.0000 C   0  0  0  0  0  0  0  0  0  0  0  0
    3.8971    5.2500    0.0000 C   0  0  0  0  0  0  0  0  0  0  0  0
    3.8971    6.7500    0.0000 C   0  0  0  0  0  0  0  0  0  0  0  0
    5.1962    4.5000    0.0000 C   0  0  0  0  0  3  0  0  0  0  0  0
    6.4952    5.2500    0.0000 C   0  0  0  0  0  3  0  0  0  0  0  0
    7.7942    4.5000    0.0000 C   0  0  0  0  0  0  0  0  0  0  0  0
    9.0933    5.2500    0.0000 C   0  0  0  0  0  0  0  0  0  0  0  0
   10.3923    4.5000    0.0000 C   0  0  0  0  0  0  0  0  0  0  0  0
    9.0933    6.7500    0.0000 C   0  0  0  0  0  3  0  0  0  0  0  0
   10.3923    7.5000    0.0000 C   0  0  0  0  0  0  0  0  0  0  0  0
   10.3923    9.0000    0.0000 C   0  0  0  0  0  0  0  0  0  0  0  0
   11.6913    9.7500    0.0000 C   0  0  0  0  0  0  0  0  0  0  0  0
    9.0933    9.7500    0.0000 C   0  0  0  0  0  0  0  0  0  0  0  0
    9.0933   11.2500    0.0000 C   0  0  0  0  0  0  0  0  0  0  0  0
    7.7942   12.0000    0.0000 C   0  0  0  0  0  0  0  0  0  0  0  0
    7.7942   13.5000    0.0000 C   0  0  0  0  0  0  0  0  0  0  0  0
    6.4952   14.2500    0.0000 C   0  0  0  0  0  0  0  0  0  0  0  0
    6.4952   15.7500    0.0000 C   0  0  0  0  0  0  0  0  0  0  0  0
    5.1962   16.5000    0.0000 C   0  0  0  0  0  0  0  0  0  0  0  0
    5.1962   18.0000    0.0000 C   0  0  0  0  0  0  0  0  0  0  0  0
    3.8971   18.7500    0.0000 C   0  0  0  0  0  0  0  0  0  0  0  0
    3.8971   20.2500    0.0000 C   0  0  0  0  0  0  0  0  0  0  0  0
    2.5981   18.0000    0.0000 S   0  0  0  0  0  0  0  0  0  0  0  0
    1.2990   18.7500    0.0000 C   0  0  0  0  0  0  0  0  0  0  0  0
   -0.0000   18.0000    0.0000 C   0  0  0  0  0  0  0  0  0  0  0  0
   -1.2990   18.7500    0.0000 C   0  0  0  0  0  0  0  0  0  0  0  0
   -2.5981   18.0000    0.0000 C   0  0  0  0  0  0  0  0  0  0  0  0
   -3.8971   18.7500    0.0000 C   0  0  0  0  0  2  0  0  0  0  0  0
   -5.1962   18.0000    0.0000 C   0  0  0  0  0  0  0  0  0  0  0  0
   -6.4952   18.7500    0.0000 C   0  0  0  0  0  3  0  0  0  0  0  0
   -7.7942   18.0000    0.0000 C   0  0  0  0  0  0  0  0  0  0  0  0
   -9.0933   18.7500    0.0000 C   0  0  0  0  0  3  0  0  0  0  0  0
  -10.3923   18.0000    0.0000 P   0  0  0  0  0  0  0  0  0  0  0  0
  -11.6913   18.7500    0.0000 C   0  0  0  0  0  0  0  0  0  0  0  0
  -12.9904   18.0000    0.0000 C   0  0  0  0  0  0  0  0  0  0  0  0
  -14.2894   18.7500    0.0000 C   0  0  0  0  0  0  0  0  0  0  0  0
  -15.5885   18.0000    0.0000 C   0  0  0  0  0  0  0  0  0  0  0  0
  -16.8875   18.7500    0.0000 C   0  0  0  0  0  0  0  0  0  0  0  0
  -18.1865   18.0000    0.0000 C   0  0  0  0  0  0  0  0  0  0  0  0
  -16.8875   20.2500    0.0000 C   0  0  0  0  0  0  0  0  0  0  0  0
  -18.1865   21.0000    0.0000 C   0  0  0  0  0  0  0  0  0  0  0  0
  -15.5885   21.0000    0.0000 C   0  0  0  0  0  0  0  0  0  0  0  0
  -15.5885   22.5000    0.0000 C   0  0  0  0  0  0  0  0  0  0  0  0
  -14.2894   23.2500    0.0000 C   0  0  0  0  0  0  0  0  0  0  0  0
  -14.2894   24.7500    0.0000 C   0  0  0  0  0  0  0  0  0  0  0  0
  -12.9904   25.5000    0.0000 C   0  0  0  0  0  0  0  0  0  0  0  0
  -12.9904   27.0000    0.0000 C   0  0  0  0  0  0  0  0  0  0  0  0
  -14.4904   27.0000    0.0000 C   0  0  0  0  0  2  0  0  0  0  0  0
  -11.4904   27.0000    0.0000 C   0  0  0  0  0  2  0  0  0  0  0  0
  -12.9904   28.5000    0.0000 C   0  0  0  0  0  0  0  0  0  0  0  0
  -14.2894   29.2500    0.0000 C   0  0  0  0  0  0  0  0  0  0  0  0
  -14.2894   30.7500    0.0000 C   0  0  0  0  0  0  0  0  0  0  0  0
  -15.5885   28.5000    0.0000 C   0  0  0  0  0  0  0  0  0  0  0  0
  -16.8875   29.2500    0.0000 C   0  0  0  0  0  0  0  0  0  0  0  0
  -18.1865   28.5000    0.0000 C   0  0  0  0  0  0  0  0  0  0  0  0
  -19.4856   29.2500    0.0000 C   0  0  0  0  0  0  0  0  0  0  0  0
  -20.7846   28.5000    0.0000 C   0  0  0  0  0  0  0  0  0  0  0  0
  -22.0836   29.2500    0.0000 C   0  0  0  0  0  3  0  0  0  0  0  0
  -23.3827   28.5000    0.0000 C   0  0  0  0  0  0  0  0  0  0  0  0
  -24.6817   29.2500    0.0000 C   0  0  0  0  0  0  0  0  0  0  0  0
  -25.9808   28.5000    0.0000 C   0  0  0  0  0  3  0  0  0  0  0  0
  -27.2798   29.2500    0.0000 C   0  0  0  0  0  0  0  0  0  0  0  0
  -28.5788   28.5000    0.0000 C   0  0  0  0  0  3  0  0  0  0  0  0
  -29.8779   29.2500    0.0000 C   0  0  0  0  0  2  0  0  0  0  0  0
  -31.1769   28.5000    0.0000 C   0  0  0  0  0  0  0  0  0  0  0  0
  -32.4760   29.2500    0.0000 C   0  0  0  0  0  0  0  0  0  0  0  0
  -33.7750   28.5000    0.0000 C   0  0  0  0  0  0  0  0  0  0  0  0
  -35.0740   29.2500    0.0000 C   0  0  0  0  0  3  0  0  0  0  0  0
  -36.3731   28.5000    0.0000 C   0  0  0  0  0  0  0  0  0  0  0  0
  -37.6721   29.2500    0.0000 C   0  0  0  0  0  0  0  0  0  0  0  0
  -38.9711   28.5000    0.0000 C   0  0  0  0  0  0  0  0  0  0  0  0
  -40.2702   29.2500    0.0000 C   0  0  0  0  0  0  0  0  0  0  0  0
  -38.9711   27.0000    0.0000 C   0  0  0  0  0  0  0  0  0  0  0  0
  -40.2702   26.2500    0.0000 C   0  0  0  0  0  0  0  0  0  0  0  0
  -40.2702   24.7500    0.0000 C   0  0  0  0  0  0  0  0  0  0  0  0
  -41.5692   24.0000    0.0000 C   0  0  0  0  0  0  0  0  0  0  0  0
  -38.9711   24.0000    0.0000 C   0  0  0  0  0  3  0  0  0  0  0  0
  -38.9711   22.5000    0.0000 C   0  0  0  0  0  0  0  0  0  0  0  0
  -37.6721   21.7500    0.0000 C   0  0  0  0  0  0  0  0  0  0  0  0
  -37.6721   20.2500    0.0000 C   0  0  0  0  0  3  0  0  0  0  0  0
  -36.3731   19.5000    0.0000 C   0  0  0  0  0  0  0  0  0  0  0  0
  -36.3731   18.0000    0.0000 C   0  0  0  0  0  0  0  0  0  0  0  0
  -35.0740   17.2500    0.0000 O   0  0  0  0  0  0  0  0  0  0  0  0
  1  2  1  0
  2  3  1  0
  2  4  1  0
  4  5  1  0
  5  6  1  0
  6  7  1  0
  7  8  1  1
  7  9  1  0
  9 10  1  0
 10 11  1  0
 11 12  1  0
 12 13  1  6
 12 14  1  0
 14 15  1  0
 15 16  1  0
 16 17  1  0
 16 18  1  0
 18 19  1  0
 19 20  1  0
 20 21  1  0
 21 22  1  0
 22 23  1  0
 23 24  1  0
 24 25  1  0
 25 26  1  0
 26 27  1  0
 26 28  1  0
 28 29  1  0
 29 30  1  0
 30 31  1  0
 31 32  1  0
 32 33  1  0
 33 34  1  0
 34 35  1  0
 35 36  1  0
 36 37  1  0
 37 38  1  0
 38 39  1  0
 39 40  1  0
 40 41  1  0
 41 42  1  0
 42 43  1  0
 43 44  1  6
 43 45  1  0
 45 46  1  6
 45 47  1  0
 47 48  1  0
 48 49  1  0
 49 50  1  0
 50 51  1  0
 51 52  1  0
 52 53  1  0
 52 54  1  0
 52 55  1  0
 55 56  1  0
 56 57  1  1
 56 58  1  0
 58 59  1  0
 59 60  1  0
 60 61  1  0
 61 62  1  0
 62 63  1  0
 63 64  1  0
 64 65  1  0
 65 66  1  0
 66 67  1  0
 67 68  1  0
 68 69  1  0
 69 70  1  0
 70 71  1  0
 71 72  1  0
 72 73  1  0
 73 74  1  0
 74 75  1  0
 75 76  1  0
 76 77  1  6
 76 78  1  0
 78 79  1  0
 79 80  1  0
 80 81  1  0
 80 82  1  0
 82 83  1  0
 83 84  1  0
 84 85  1  0
 85 86  1  0
 86 87  1  0
 87 88  2  0
M  RAD  8   9   2  10   2  14   2  33   3  35   2  37   2  53   3  54   3
M  RAD  7  63   2  66   2  68   2  69   3  73   2  82   2  85   2
M  END
$$$$
