
     RDKit          3D

 63 62  0  0  0  0  0  0  0  0999 V2000
   11.5925   -0.9439   -2.5480 C   0  0  0  0  0  0  0  0  0  0  0  0
   12.6815   -0.1892   -1.8550 C   0  0  0  0  0  0  0  0  0  0  0  0
   13.9476   -0.3746   -2.3117 C   0  0  0  0  0  0  0  0  0  0  0  0
   15.0084    0.3681   -1.6273 C   0  0  0  0  0  0  0  0  0  0  0  0
   16.2667    0.2921   -1.9521 C   0  0  0  0  0  0  0  0  0  0  0  0
   17.3325    1.0340   -1.2696 C   0  0  0  0  0  0  0  0  0  0  0  0
   17.0681    1.9597   -0.1390 C   0  0  0  0  0  0  0  0  0  0  0  0
   18.5669    0.8540   -1.7140 C   0  0  0  0  0  0  0  0  0  0  0  0
   19.7441    1.5113   -1.1500 C   0  0  0  0  0  0  0  0  0  0  0  0
   20.8069    0.5570   -0.6999 C   0  0  0  0  0  0  0  0  0  0  0  0
   20.3126   -0.3624    0.3406 C   0  0  0  0  0  0  0  0  0  0  0  0
   19.1782   -0.2926    0.7245 O   0  0  0  0  0  0  0  0  0  0  0  0
   12.4526    0.6968   -0.7593 C   0  0  0  0  0  0  0  0  0  0  0  0
   11.4025    1.0243   -0.1745 C   0  0  0  0  0  0  0  0  0  0  0  0
    9.9840    0.7767   -0.2049 C   0  0  0  0  0  0  0  0  0  0  0  0
    9.3589    1.5977   -1.3420 C   0  0  0  0  0  0  0  0  0  0  0  0
    9.6325    3.0783   -1.0890 C   0  0  0  0  0  0  0  0  0  0  0  0
    7.8856    1.3681   -1.2128 C   0  0  0  0  0  0  0  0  0  0  0  0
    7.1082    0.9278   -2.1661 C   0  0  0  0  0  0  0  0  0  0  0  0
    7.5206    0.5795   -3.5295 C   0  0  0  0  0  0  0  0  0  0  0  0
    8.9965    0.8494   -3.6966 C   0  0  0  0  0  0  0  0  0  0  0  0
    9.6484   -0.9914   -0.3923 S   0  0  0  0  0  0  0  0  0  0  0  0
    9.4129    1.2717    1.1299 C   0  0  0  0  0  0  0  0  0  0  0  0
    7.9066    1.0397    1.1660 C   0  0  0  0  0  0  0  0  0  0  0  0
    7.4257    1.5387    2.4811 C   0  0  0  0  0  0  0  0  0  0  0  0
    6.2715    1.0587    2.9018 C   0  0  0  0  0  0  0  0  0  0  0  0
    4.7846    0.5637    3.3366 S   0  0  0  0  0  0  0  0  0  0  0  0
    4.2594   -1.0160    2.7134 N   0  0  0  0  0  0  0  0  0  0  0  0
    3.0788   -0.8869    1.8756 C   0  0  0  0  0  0  0  0  0  0  0  0
    2.7140   -2.2550    1.3941 C   0  0  0  0  0  0  0  0  0  0  0  0
    1.4910   -2.2748    0.5034 C   0  0  0  0  0  0  0  0  0  0  0  0
    1.1976   -3.6654    0.0671 C   0  0  0  0  0  0  0  0  0  0  0  0
    0.0488   -4.2585    0.3529 C   0  0  0  0  0  0  0  0  0  0  0  0
   -0.9749   -3.5134    1.1303 C   0  0  0  0  0  0  0  0  0  0  0  0
   -2.2402   -3.3846    0.3759 C   0  0  0  0  0  0  0  0  0  0  0  0
   -2.6358   -2.1785   -0.5838 S   0  0  0  0  0  0  0  0  0  0  0  0
   -4.2406   -2.4910   -1.2450 N   0  0  0  0  0  0  0  0  0  0  0  0
   -5.0253   -3.3177   -0.3430 C   0  0  0  0  0  0  0  0  0  0  0  0
   -6.3662   -3.5470   -0.9713 C   0  0  0  0  0  0  0  0  0  0  0  0
   -6.2105   -4.2509   -2.3070 C   0  0  0  0  0  0  0  0  0  0  0  0
   -7.1939   -1.9710   -1.2663 S   0  0  0  0  0  0  0  0  0  0  0  0
   -7.5717   -1.2188    0.2810 N   0  0  0  0  0  0  0  0  0  0  0  0
   -8.9420   -1.5022    0.6669 C   0  0  0  0  0  0  0  0  0  0  0  0
   -9.2873   -0.8698    1.9656 C   0  0  0  0  0  0  0  0  0  0  0  0
   -9.6611   -1.6341    2.9655 C   0  0  0  0  0  0  0  0  0  0  0  0
   -9.2262    0.6055    2.1762 C   0  0  0  0  0  0  0  0  0  0  0  0
  -10.3445    1.4518    1.0271 S   0  0  0  0  0  0  0  0  0  0  0  0
  -12.0491    0.9831    1.4913 C   0  0  0  0  0  0  0  0  0  0  0  0
  -12.3282    1.5784    2.8586 C   0  0  0  0  0  0  0  0  0  0  0  0
  -11.3922    1.0618    3.8172 N   0  0  0  0  0  0  0  0  0  0  0  0
  -14.0354    1.1384    3.3023 S   0  0  0  0  0  0  0  0  0  0  0  0
  -15.1446    1.9557    2.1734 C   0  0  0  0  0  0  0  0  0  0  0  0
  -16.3739    1.7776    2.3390 O   0  0  0  0  0  0  0  0  0  0  0  0
  -14.6809    2.8038    1.0904 C   0  0  0  0  0  0  0  0  0  0  0  0
  -15.7540    3.5162    0.0985 S   0  0  0  0  0  0  0  0  0  0  0  0
  -17.5522    3.3426    0.2246 C   0  0  0  0  0  0  0  0  0  0  0  0
  -18.0805    2.1643   -0.5179 C   0  0  0  0  0  0  0  0  0  0  0  0
  -18.7253    1.2523    0.1708 C   0  0  0  0  0  0  0  0  0  0  0  0
  -17.8598    2.0663   -1.9722 C   0  0  0  0  0  0  0  0  0  0  0  0
  -18.4036    0.8140   -2.5732 C   0  0  0  0  0  0  0  0  0  0  0  0
  -17.7398   -0.3646   -1.9696 C   0  0  0  0  0  0  0  0  0  0  0  0
  -18.1823   -1.7258   -2.4282 C   0  0  0  0  0  0  0  0  0  0  0  0
  -16.8651   -0.2589   -1.1309 O   0  0  0  0  0  0  0  0  0  0  0  0
  1  2  1  0
  2  3  2  0
  3  4  1  0
  4  5  2  0
  5  6  1  0
  6  7  1  0
  6  8  2  0
  8  9  1  0
  9 10  1  0
 10 11  1  0
 11 12  2  0
  2 13  1  0
 13 14  2  3
 14 15  1  0
 15 16  1  0
 16 17  1  0
 16 18  1  0
 18 19  2  3
 19 20  1  0
 20 21  1  0
 15 22  1  0
 15 23  1  0
 23 24  1  0
 24 25  1  0
 25 26  2  0
 26 27  2  0
 27 28  1  0
 28 29  1  0
 29 30  1  0
 30 31  1  0
 31 32  1  0
 32 33  2  3
 33 34  1  0
 34 35  1  0
 35 36  2  3
 36 37  1  0
 37 38  1  0
 38 39  1  0
 39 40  1  0
 39 41  1  0
 41 42  1  0
 42 43  1  0
 43 44  1  0
 44 45  2  0
 44 46  1  0
 46 47  1  0
 47 48  1  0
 48 49  1  0
 49 50  1  0
 49 51  1  0
 51 52  1  0
 52 53  2  0
 52 54  1  0
 54 55  2  3
 55 56  1  0
 56 57  1  0
 57 58  2  0
 57 59  1  0
 59 60  1  0
 60 61  1  0
 61 62  1  0
 61 63  2  0
M  END
$$$$
