
     RDKit          3D

 27 28  0  0  0  0  0  0  0  0999 V2000
    2.5853   -1.4341    1.5615 C   0  0  0  0  0  0  0  0  0  0  0  0
    2.7023   -0.1411    0.8105 C   0  0  1  0  0  0  0  0  0  0  0  0
    4.0539    0.4740    0.8269 C   0  0  0  0  0  0  0  0  0  0  0  0
    5.0083   -0.0393   -0.1911 C   0  0  2  0  0  0  0  0  0  0  0  0
    5.9933    0.9377   -0.3858 O   0  0  0  0  0  0  0  0  0  0  0  0
    4.4054   -0.3551   -1.5178 C   0  0  2  0  0  0  0  0  0  0  0  0
    4.0494    0.8599   -2.1390 O   0  0  0  0  0  0  0  0  0  0  0  0
    3.1245   -1.1479   -1.3592 C   0  0  1  0  0  0  0  0  0  0  0  0
    3.3145   -2.2605   -0.5161 O   0  0  0  0  0  0  0  0  0  0  0  0
    2.1662   -0.2225   -0.5983 C   0  0  1  0  0  0  0  0  0  0  0  0
    0.8160   -0.7246   -0.6444 N   0  0  0  0  0  0  0  0  0  0  0  0
   -0.0491    0.1682    0.0525 C   0  0  1  0  0  0  0  0  0  0  0  0
   -0.1707    1.5345   -0.4884 C   0  0  0  0  0  0  0  0  0  0  0  0
   -1.5515    1.9339   -0.9297 C   0  0  0  0  0  0  0  0  0  0  0  0
   -1.4084    3.1095   -1.7052 O   0  0  0  0  0  0  0  0  0  0  0  0
   -2.4294    2.3163    0.2415 C   0  0  1  0  0  0  0  0  0  0  0  0
   -3.8935    2.1695   -0.0461 C   0  0  0  0  0  0  0  0  0  0  0  0
   -1.9869    1.6703    1.5211 C   0  0  1  0  0  0  0  0  0  0  0  0
   -2.8259    2.1561    2.5388 O   0  0  0  0  0  0  0  0  0  0  0  0
   -2.0985    0.1820    1.5237 C   0  0  2  0  0  0  0  0  0  0  0  0
   -1.6000   -0.2959    2.8925 C   0  0  0  0  0  0  0  0  0  0  0  0
   -1.2843   -0.5188    0.4901 C   0  0  1  0  0  0  0  0  0  0  0  0
   -2.0327   -1.0911   -0.5493 O   0  0  0  0  0  0  0  0  0  0  0  0
   -3.1199   -1.7307   -0.3856 N   0  0  0  0  0  0  0  0  0  0  0  0
   -4.1380   -2.2769   -0.3458 N   0  0  0  0  0  4  0  0  0  0  0  0
   -4.5842   -3.0195    0.7489 O   0  0  0  0  0  0  0  0  0  0  0  0
   -5.0461   -2.2538   -1.4062 O   0  0  0  0  0  0  0  0  0  0  0  0
  2  1  1  6
  2  3  1  0
  3  4  1  0
  4  5  1  6
  4  6  1  0
  6  7  1  1
  6  8  1  0
  8  9  1  1
  8 10  1  0
 10 11  1  1
 12 11  1  6
 12 13  1  0
 13 14  1  0
 14 15  1  0
 14 16  1  0
 16 17  1  6
 16 18  1  0
 18 19  1  1
 18 20  1  0
 20 21  1  1
 20 22  1  0
 22 23  1  6
 23 24  1  0
 24 25  2  0
 25 26  1  0
 25 27  1  0
 10  2  1  0
 22 12  1  0
M  CHG  1  25   1
M  END
$$$$
