
     RDKit          3D

 33 34  0  0  0  0  0  0  0  0999 V2000
   -4.9775    2.6055    0.8922 C   0  0  0  0  0  0  0  0  0  0  0  0
   -3.8220    2.2652    1.8307 C   0  0  0  0  0  3  0  0  0  0  0  0
   -2.6453    1.9659    0.9702 C   0  0  0  0  0  0  0  0  0  0  0  0
   -2.3353    3.1293    0.0424 C   0  0  2  0  0  0  0  0  0  0  0  0
   -2.6473    4.2989    0.7377 O   0  0  0  0  0  0  0  0  0  0  0  0
   -3.2577    3.1138   -1.1694 C   0  0  0  0  0  0  0  0  0  0  0  0
   -3.0661    1.9920   -1.9501 O   0  0  0  0  0  0  0  0  0  0  0  0
   -4.1121    1.0989   -1.7496 C   0  0  0  0  0  3  0  0  0  0  0  0
   -4.0450    0.4156   -0.3999 C   0  0  1  0  0  0  0  0  0  0  0  0
   -4.1364   -0.9666   -0.6210 O   0  0  0  0  0  0  0  0  0  0  0  0
   -2.7737    0.6585    0.2894 C   0  0  1  0  0  0  0  0  0  0  0  0
   -1.6227    0.2499   -0.4335 N   0  0  0  0  0  0  0  0  0  0  0  0
   -1.3419   -1.2336   -0.0533 C   0  0  1  0  0  0  0  0  0  0  0  0
   -1.3757   -2.0590   -1.2353 C   0  0  0  0  0  0  0  0  0  0  0  0
   -1.2105   -3.4847   -0.7454 C   0  0  0  0  0  0  0  0  0  0  0  0
   -1.9924   -3.7218    0.3900 O   0  0  0  0  0  0  0  0  0  0  0  0
    0.2084   -3.9017   -0.5571 C   0  0  1  0  0  0  0  0  0  0  0  0
    0.9820   -3.4162   -1.5973 O   0  0  0  0  0  0  0  0  0  0  0  0
    0.7843   -3.5076    0.7654 C   0  0  1  0  0  0  0  0  0  0  0  0
    2.0764   -3.0064    0.6548 O   0  0  0  0  0  0  0  0  0  0  0  0
   -0.0538   -2.4851    1.4702 C   0  0  1  0  0  0  0  0  0  0  0  0
    0.4398   -2.2851    2.7182 O   0  0  0  0  0  0  0  0  0  0  0  0
   -0.0382   -1.0745    0.7460 C   0  0  1  0  0  0  0  0  0  0  0  0
    0.9086   -1.1001   -0.3366 O   0  0  0  0  0  0  0  0  0  0  0  0
    1.5491    0.0679    0.0854 O   0  0  0  0  0  0  0  0  0  0  0  0
    2.7145   -0.0483    0.3559 O   0  0  0  0  0  0  0  0  0  0  0  0
    3.4184    1.0648   -0.2168 C   0  0  2  0  0  0  0  0  0  0  0  0
    3.0356    1.1233   -1.5836 O   0  0  0  0  0  0  0  0  0  0  0  0
    4.6732    0.2523   -0.4507 O   0  0  0  0  0  0  0  0  0  0  0  0
    5.5277    0.9717   -1.1183 O   0  0  0  0  0  0  0  0  0  0  0  0
    6.7330    1.0455   -0.4920 C   0  0  0  0  0  3  0  0  0  0  0  0
    6.7580    2.3892    0.2497 C   0  0  0  0  0  3  0  0  0  0  0  0
    5.6448    3.5826   -0.5650 S   0  0  0  0  0  0  0  0  0  0  0  0
  1  2  1  0
  2  3  1  0
  3  4  1  0
  4  5  1  1
  4  6  1  0
  6  7  1  0
  7  8  1  0
  8  9  1  0
  9 10  1  6
  9 11  1  0
 11 12  1  6
 13 12  1  6
 13 14  1  0
 14 15  1  0
 15 16  1  0
 15 17  1  0
 17 18  1  6
 17 19  1  0
 19 20  1  6
 19 21  1  0
 21 22  1  1
 21 23  1  0
 23 24  1  6
 24 25  1  0
 25 26  1  0
 26 27  1  0
 27 28  1  6
 27 29  1  0
 29 30  1  0
 30 31  1  0
 31 32  1  0
 32 33  1  0
 11  3  1  0
 23 13  1  0
M  RAD  4   2   2   8   2  31   2  32   2
M  END
$$$$
