
     RDKit          3D

 14 14  0  0  0  0  0  0  0  0999 V2000
    4.2805   -0.9474    0.1895 C   0  0  0  0  0  0  0  0  0  0  0  0
    3.8132   -0.3396   -0.9801 O   0  0  0  0  0  0  0  0  0  0  0  0
    2.6257    0.3232   -0.7175 C   0  0  1  0  0  0  0  0  0  0  0  0
    2.1881    0.9159   -1.8988 O   0  0  0  0  0  0  0  0  0  0  0  0
    1.5580   -0.6198   -0.1995 C   0  0  0  0  0  0  0  0  0  0  0  0
    0.3180    0.2078    0.0498 C   0  0  0  0  0  0  0  0  0  0  0  0
   -0.8273   -0.6075    0.5695 C   0  0  0  0  0  0  0  0  0  0  0  0
   -1.2007   -1.6718   -0.3974 C   0  0  0  0  0  3  0  0  0  0  0  0
   -2.1282   -1.2373   -1.4846 C   0  0  0  0  0  0  0  0  0  0  0  0
   -2.4456    0.2357   -1.4587 C   0  0  0  0  0  0  0  0  0  0  0  0
   -2.7166    0.7156   -0.0738 C   0  0  0  0  0  0  0  0  0  0  0  0
   -1.9369    0.3118    0.9155 C   0  0  0  0  0  0  0  0  0  0  0  0
   -2.1437    0.7422    2.2992 C   0  0  0  0  0  0  0  0  0  0  0  0
   -1.3843    0.3340    3.1869 O   0  0  0  0  0  0  0  0  0  0  0  0
  1  2  1  0
  2  3  1  0
  3  4  1  6
  3  5  1  0
  5  6  1  0
  6  7  1  0
  7  8  1  0
  8  9  1  0
  9 10  1  0
 10 11  1  0
 11 12  2  0
 12 13  1  0
 13 14  2  0
 12  7  1  0
M  RAD  1   8   2
M  END
$$$$
