
     RDKit          3D

 46 47  0  0  0  0  0  0  0  0999 V2000
   -0.0866    1.9655   -1.4885 C   0  0  0  0  0  0  0  0  0  0  0  0
   -0.9695    2.4739   -0.4036 C   0  0  0  0  0  0  0  0  0  0  0  0
   -0.8065    3.9719   -0.3107 C   0  0  2  0  0  0  0  0  0  0  0  0
   -0.7259    4.3328    1.1483 C   0  0  0  0  0  0  0  0  0  0  0  0
   -1.8654    4.7147   -1.0157 C   0  0  0  0  0  0  0  0  0  0  0  0
   -1.5609    5.5216   -1.9188 O   0  0  0  0  0  0  0  0  0  0  0  0
   -3.1926    4.5326   -0.6931 O   0  0  0  0  0  0  0  0  0  0  0  0
   -3.7674    3.3127   -0.3029 C   0  0  0  0  0  3  0  0  0  0  0  0
   -4.2093    3.3249    1.1580 C   0  0  0  0  0  0  0  0  0  0  0  0
   -3.5304    2.1693    1.8364 C   0  0  1  0  0  0  0  0  0  0  0  0
   -2.8159    2.5855    2.9339 O   0  0  0  0  0  0  0  0  0  0  0  0
   -4.5200    1.1355    2.2039 C   0  0  0  0  0  0  0  0  0  0  0  0
   -4.1827   -0.1212    2.3711 C   0  0  0  0  0  0  0  0  0  0  0  0
   -5.1967   -1.1060    2.7342 C   0  0  0  0  0  0  0  0  0  0  0  0
   -4.9806   -2.4134    2.6197 C   0  0  0  0  0  0  0  0  0  0  0  0
   -3.6648   -2.9204    2.1049 C   0  0  0  0  0  0  0  0  0  0  0  0
   -3.7411   -3.1244    0.6203 C   0  0  2  0  0  0  0  0  0  0  0  0
   -2.6381   -4.0845    0.2252 C   0  0  0  0  0  0  0  0  0  0  0  0
   -1.3399   -3.7617    0.9345 C   0  0  0  0  0  0  0  0  0  0  0  0
   -0.1470   -4.3267    0.2220 C   0  0  0  0  0  3  0  0  0  0  0  0
   -0.5145   -5.0843   -1.0268 C   0  0  0  0  0  0  0  0  0  0  0  0
   -0.8504   -4.1653   -2.1778 C   0  0  1  0  0  0  0  0  0  0  0  0
   -2.1906   -4.2619   -2.5406 O   0  0  0  0  0  0  0  0  0  0  0  0
   -0.4779   -2.7299   -1.8833 C   0  0  0  0  0  0  0  0  0  0  0  0
   -1.7196   -1.9492   -1.6973 C   0  0  0  0  0  0  0  0  0  0  0  0
   -2.3648   -1.6343   -2.6680 O   0  0  0  0  0  0  0  0  0  0  0  0
   -3.6023   -1.7860   -0.0762 C   0  0  0  0  0  0  0  0  0  0  0  0
   -2.1446   -1.5736   -0.3598 C   0  0  2  0  0  0  0  0  0  0  0  0
   -1.6880   -0.1642   -0.0679 C   0  0  0  0  0  0  0  0  0  0  0  0
   -0.1987   -0.1481   -0.1361 C   0  0  2  0  0  0  0  0  0  0  0  0
    0.4466    0.3106    1.1520 C   0  0  0  0  0  0  0  0  0  0  0  0
    0.3549    0.5545   -1.3379 C   0  0  2  0  0  0  0  0  0  0  0  0
    1.8585    0.3838   -1.3213 C   0  0  2  0  0  0  0  0  0  0  0  0
    2.4062    1.1716   -0.1571 C   0  0  0  0  0  0  0  0  0  0  0  0
    2.3953    0.8291   -2.6453 C   0  0  0  0  0  0  0  0  0  0  0  0
    3.7699    0.6887   -2.6713 O   0  0  0  0  0  0  0  0  0  0  0  0
    4.2982    1.4884   -1.6407 C   0  0  2  0  0  0  0  0  0  0  0  0
    3.8680    2.9080   -1.9466 C   0  0  0  0  0  2  0  0  0  0  0  0
    5.8110    1.3844   -1.7024 C   0  0  0  0  0  0  0  0  0  0  0  0
    6.2138   -0.0528   -1.5128 C   0  0  0  0  0  0  0  0  0  0  0  0
    5.7629   -0.6135   -0.1934 C   0  0  0  0  0  0  0  0  0  0  0  0
    6.3662    0.1794    0.9333 C   0  0  0  0  0  0  0  0  0  0  0  0
    5.9343   -0.3566    2.2751 C   0  0  2  0  0  0  0  0  0  0  0  0
    6.5422    0.4419    3.3843 C   0  0  0  0  0  0  0  0  0  0  0  0
    6.2648   -1.8040    2.4184 C   0  0  0  0  0  0  0  0  0  0  0  0
    7.4000   -2.1997    2.6209 O   0  0  0  0  0  0  0  0  0  0  0  0
  1  2  1  0
  2  3  1  0
  3  4  1  1
  3  5  1  0
  5  6  2  0
  5  7  1  0
  7  8  1  0
  8  9  1  0
  9 10  1  0
 10 11  1  1
 10 12  1  0
 12 13  2  3
 13 14  1  0
 14 15  2  3
 15 16  1  0
 17 16  1  1
 17 18  1  0
 18 19  1  0
 19 20  1  0
 20 21  1  0
 21 22  1  0
 22 23  1  1
 22 24  1  0
 24 25  1  0
 25 26  2  0
 17 27  1  0
 27 28  1  0
 28 29  1  6
 29 30  1  0
 30 31  1  1
 30 32  1  0
 32 33  1  0
 33 34  1  1
 33 35  1  0
 35 36  1  0
 36 37  1  0
 37 38  1  6
 37 39  1  0
 39 40  1  0
 40 41  1  0
 41 42  1  0
 42 43  1  0
 43 44  1  1
 43 45  1  0
 45 46  2  0
 32  1  1  1
 28 25  1  0
M  RAD  3   8   2  20   2  38   3
M  END
$$$$
