
     RDKit          3D

 29 30  0  0  0  0  0  0  0  0999 V2000
   -0.1491    5.2670   -0.6821 C   0  0  0  0  0  0  0  0  0  0  0  0
   -0.2314    4.0281    0.1463 C   0  0  0  0  0  0  0  0  0  0  0  0
    0.5499    4.0976    1.4260 C   0  0  0  0  0  0  0  0  0  0  0  0
    0.1177    2.7772   -0.6564 C   0  0  0  0  0  0  0  0  0  0  0  0
    0.0354    1.5490    0.1679 C   0  0  0  0  0  0  0  0  0  0  0  0
   -1.2676    1.2384    0.7675 C   0  0  0  0  0  0  0  0  0  0  0  0
   -2.4665    1.5118   -0.0603 C   0  0  1  0  0  0  0  0  0  0  0  0
   -2.8937    2.9359   -0.1206 C   0  0  0  0  0  0  0  0  0  0  0  0
   -2.5297    0.7807   -1.3568 C   0  0  0  0  0  3  0  0  0  0  0  0
   -3.7559   -0.1408   -1.2951 C   0  0  0  0  0  0  0  0  0  0  0  0
   -3.9226   -0.5652    0.1592 C   0  0  0  0  0  0  0  0  0  0  0  0
   -3.7260   -2.0817    0.2310 C   0  0  1  0  0  0  0  0  0  0  0  0
   -4.9208   -2.7152   -0.4618 C   0  0  0  0  0  0  0  0  0  0  0  0
   -2.4768   -2.3882   -0.5516 C   0  0  0  0  0  3  0  0  0  0  0  0
   -1.2559   -2.5196    0.3418 C   0  0  0  0  0  0  0  0  0  0  0  0
   -0.7667   -1.1601    0.8076 C   0  0  0  0  0  0  0  0  0  0  0  0
   -0.7934   -1.1728    2.3217 C   0  0  0  0  0  0  0  0  0  0  0  0
    0.6226   -0.8653    0.3658 C   0  0  0  0  0  0  0  0  0  0  0  0
    1.3173   -2.0165   -0.2778 C   0  0  0  0  0  0  0  0  0  0  0  0
    2.2692   -2.6446    0.7137 C   0  0  0  0  0  0  0  0  0  0  0  0
    1.9724   -4.0008    0.9170 O   0  0  0  0  0  0  0  0  0  0  0  0
    3.7000   -2.5266    0.2934 C   0  0  0  0  0  0  0  0  0  0  0  0
    4.2487   -1.1633    0.6758 C   0  0  0  0  0  0  0  0  0  0  0  0
    4.4956   -0.3632   -0.5885 C   0  0  2  0  0  0  0  0  0  0  0  0
    5.1276    0.8338   -0.2927 O   0  0  0  0  0  0  0  0  0  0  0  0
    3.1236   -0.0833   -1.2089 C   0  0  0  0  0  3  0  0  0  0  0  0
    2.2835    0.7690   -0.3180 C   0  0  0  0  0  0  0  0  0  0  0  0
    0.7970    0.3982   -0.3929 C   0  0  0  0  0  0  0  0  0  0  0  0
    0.4958    0.2207   -1.8845 C   0  0  0  0  0  2  0  0  0  0  0  0
  1  2  1  0
  2  3  1  0
  2  4  1  0
  4  5  1  0
  5  6  1  0
  6  7  1  0
  7  8  1  6
  7  9  1  0
  9 10  1  0
 10 11  1  0
 11 12  1  0
 12 13  1  6
 12 14  1  0
 14 15  1  0
 15 16  1  0
 16 17  1  0
 16 18  1  0
 18 19  1  0
 19 20  1  0
 20 21  1  0
 20 22  1  0
 22 23  1  0
 23 24  1  0
 24 25  1  1
 24 26  1  0
 26 27  1  0
 27 28  1  0
 28 29  1  0
 28  5  1  0
 28 18  1  0
M  RAD  4   9   2  14   2  26   2  29   3
M  END
$$$$
