
     RDKit          3D

 13 12  0  0  0  0  0  0  0  0999 V2000
   -2.8202    2.7022    0.4839 C   0  0  0  0  0  0  0  0  0  0  0  0
   -2.2416    1.5094    0.2605 C   0  0  0  0  0  0  0  0  0  0  0  0
   -2.9335    0.5151   -0.5241 C   0  0  0  0  0  0  0  0  0  0  0  0
   -2.4232   -0.6493   -0.7756 C   0  0  0  0  0  0  0  0  0  0  0  0
   -1.1692   -1.1338   -0.3555 N   0  0  0  0  0  0  0  0  0  0  0  0
   -0.9358   -2.4719   -0.5371 O   0  0  0  0  0  0  0  0  0  0  0  0
    0.4015   -2.7858   -0.4610 C   0  0  0  0  0  0  0  0  0  0  0  0
   -0.2171   -0.2460    0.2252 C   0  0  0  0  0  0  0  0  0  0  0  0
    0.3554    0.7543   -0.6969 C   0  0  0  0  0  0  0  0  0  0  0  0
    1.6582    0.7542   -0.9043 C   0  0  0  0  0  0  0  0  0  0  0  0
    2.4434   -0.1816   -0.2508 O   0  0  0  0  0  0  0  0  0  0  0  0
    3.4481    0.1768    0.7049 C   0  0  0  0  0  0  0  0  0  0  0  0
    4.4339    1.0564   -0.0691 C   0  0  0  0  0  0  0  0  0  0  0  0
  1  2  2  0
  2  3  1  0
  3  4  2  3
  4  5  1  0
  5  6  1  0
  6  7  1  0
  5  8  1  0
  8  9  1  0
  9 10  2  3
 10 11  1  0
 11 12  1  0
 12 13  1  0
M  END
$$$$
