
     RDKit          3D

 24 25  0  0  0  0  0  0  0  0999 V2000
    7.6126    2.7274   -0.4468 C   0  0  0  0  0  0  0  0  0  0  0  0
    6.2453    2.6620   -0.2136 O   0  0  0  0  0  0  0  0  0  0  0  0
    5.6728    1.4820   -0.6716 C   0  0  0  0  0  3  0  0  0  0  0  0
    4.5907    1.1820    0.1186 O   0  0  0  0  0  0  0  0  0  0  0  0
    3.8586    0.0954   -0.3542 C   0  0  2  0  0  0  0  0  0  0  0  0
    2.6664   -0.2822    0.4627 C   0  0  0  0  0  0  0  0  0  0  0  0
    4.4944   -1.2574   -0.0981 C   0  0  0  0  0  3  0  0  0  0  0  0
    3.2851   -1.6238    0.7514 C   0  0  2  0  0  0  0  0  0  0  0  0
    2.4889   -2.7964    0.2397 C   0  0  0  0  0  3  0  0  0  0  0  0
    1.1516   -2.8121    0.8513 C   0  0  0  0  0  0  0  0  0  0  0  0
    0.1137   -2.1486    0.3110 C   0  0  0  0  0  0  0  0  0  0  0  0
    0.3758   -1.2321   -1.1810 S   0  0  0  0  0  0  0  0  0  0  0  0
   -1.1839   -2.2557    1.0046 C   0  0  0  0  0  0  0  0  0  0  0  0
   -2.2053   -2.7995    0.0112 C   0  0  0  0  0  0  0  0  0  0  0  0
   -2.3215   -1.8221   -1.0010 O   0  0  0  0  0  0  0  0  0  0  0  0
   -2.8846   -0.6945   -0.4427 C   0  0  0  0  0  0  0  0  0  0  0  0
   -2.1134   -0.2086    0.5900 O   0  0  0  0  0  0  0  0  0  0  0  0
   -2.7171    0.9243    1.1212 C   0  0  2  0  0  0  0  0  0  0  0  0
   -4.0249    0.6810    1.6390 O   0  0  0  0  0  0  0  0  0  0  0  0
   -3.7931    1.5520    0.4688 C   0  0  2  0  0  0  0  0  0  0  0  0
   -4.4939    1.0335   -0.7793 C   0  0  0  0  0  3  0  0  0  0  0  0
   -5.5823    2.0328   -1.1159 C   0  0  2  0  0  0  0  0  0  0  0  0
   -4.8819    3.3646   -1.3590 C   0  0  0  0  0  0  0  0  0  0  0  0
   -6.3540    2.1961    0.0371 O   0  0  0  0  0  0  0  0  0  0  0  0
  1  2  1  0
  2  3  1  0
  3  4  1  0
  5  4  1  1
  5  6  1  0
  5  7  1  0
  7  8  1  0
  8  9  1  6
  9 10  1  0
 10 11  2  3
 11 12  1  0
 11 13  1  0
 13 14  1  0
 14 15  1  0
 15 16  1  0
 16 17  1  0
 18 17  1  6
 18 19  1  0
 18 20  1  0
 20 21  1  6
 21 22  1  0
 22 23  1  1
 22 24  1  0
  8  6  1  0
 20 19  1  0
M  RAD  4   3   2   7   2   9   2  21   2
M  END
$$$$
