
     RDKit          3D

 33 34  0  0  0  0  0  0  0  0999 V2000
   -5.1651    2.2328   -0.8497 C   0  0  0  0  0  0  0  0  0  0  0  0
   -5.6057    1.3270    0.2881 C   0  0  1  0  0  0  0  0  0  0  0  0
   -6.7959    0.5634   -0.1265 C   0  0  0  0  0  0  0  0  0  0  0  0
   -6.4659   -0.8428   -0.5278 C   0  0  2  0  0  0  0  0  0  0  0  0
   -7.5562   -1.5385   -1.0040 O   0  0  0  0  0  0  0  0  0  0  0  0
   -5.8461   -1.5054    0.6862 C   0  0  2  0  0  0  0  0  0  0  0  0
   -6.6529   -1.3420    1.8111 O   0  0  0  0  0  0  0  0  0  0  0  0
   -4.5312   -0.8603    0.9427 C   0  0  1  0  0  0  0  0  0  0  0  0
   -3.5793   -1.4694    0.1060 O   0  0  0  0  0  0  0  0  0  0  0  0
   -4.4983    0.6053    0.9085 C   0  0  1  0  0  0  0  0  0  0  0  0
   -3.2307    1.0996    0.3484 N   0  0  0  0  0  0  0  0  0  0  0  0
   -2.1033    0.4095    0.9375 C   0  0  0  0  0  3  0  0  0  0  0  0
   -0.8617    1.2436    0.9563 C   0  0  0  0  0  0  0  0  0  0  0  0
   -0.0775    1.0239   -0.3162 C   0  0  1  0  0  0  0  0  0  0  0  0
   -0.7845    1.3604   -1.4537 O   0  0  0  0  0  0  0  0  0  0  0  0
    1.2914    1.6637   -0.2559 C   0  0  0  0  0  0  0  0  0  0  0  0
    1.9970    1.2135   -1.3884 O   0  0  0  0  0  0  0  0  0  0  0  0
    2.6668    0.1049   -1.0824 O   0  0  0  0  0  0  0  0  0  0  0  0
    1.9159   -1.0264   -1.3290 C   0  0  1  0  0  0  0  0  0  0  0  0
    2.0672   -1.3998   -2.6731 O   0  0  0  0  0  0  0  0  0  0  0  0
    2.4241   -2.1560   -0.4838 C   0  0  2  0  0  0  0  0  0  0  0  0
    1.9044   -2.1133    0.7950 O   0  0  0  0  0  0  0  0  0  0  0  0
    3.9298   -2.2662   -0.4811 C   0  0  2  0  0  0  0  0  0  0  0  0
    4.3680   -2.7340    0.7688 O   0  0  0  0  0  0  0  0  0  0  0  0
    4.5294   -1.0582   -0.7827 O   0  0  0  0  0  0  0  0  0  0  0  0
    5.6174   -0.8523    0.0566 C   0  0  0  0  0  3  0  0  0  0  0  0
    6.7325   -1.5462   -0.4385 O   0  0  0  0  0  0  0  0  0  0  0  0
    5.9733    0.5014    0.0609 O   0  0  0  0  0  0  0  0  0  0  0  0
    5.0846    1.1266    0.8207 O   0  0  0  0  0  0  0  0  0  0  0  0
    4.8788    2.4389    0.3843 C   0  0  0  0  0  3  0  0  0  0  0  0
    3.5063    2.7403    0.3807 O   0  0  0  0  0  0  0  0  0  0  0  0
    2.9273    1.9342    1.3598 C   0  0  0  0  0  0  0  0  0  0  0  0
    1.9401    1.1219    0.8570 O   0  0  0  0  0  0  0  0  0  0  0  0
  2  1  1  6
  2  3  1  0
  3  4  1  0
  4  5  1  1
  4  6  1  0
  6  7  1  1
  6  8  1  0
  8  9  1  6
  8 10  1  0
 10 11  1  6
 11 12  1  0
 12 13  1  0
 13 14  1  0
 14 15  1  6
 14 16  1  0
 16 17  1  0
 17 18  1  0
 18 19  1  0
 19 20  1  6
 19 21  1  0
 21 22  1  1
 21 23  1  0
 23 24  1  1
 23 25  1  0
 25 26  1  0
 26 27  1  0
 26 28  1  0
 28 29  1  0
 29 30  1  0
 30 31  1  0
 31 32  1  0
 32 33  1  0
 10  2  1  0
 33 16  1  0
M  RAD  3  12   2  26   2  30   2
M  END
$$$$
