
     RDKit          3D

 26 26  0  0  0  0  0  0  0  0999 V2000
   -3.2567    2.3781   -0.0322 C   0  0  0  0  0  0  0  0  0  0  0  0
   -3.3280    1.2048    0.9536 C   0  0  1  0  0  0  0  0  0  0  0  0
   -4.7501    1.1658    1.4581 C   0  0  0  0  0  0  0  0  0  0  0  0
   -5.3576   -0.1936    1.4004 C   0  0  2  0  0  0  0  0  0  0  0  0
   -4.9397   -1.0499    2.4070 O   0  0  0  0  0  0  0  0  0  0  0  0
   -5.3317   -0.8110    0.0344 C   0  0  2  0  0  0  0  0  0  0  0  0
   -5.3313   -2.2077    0.2038 O   0  0  0  0  0  0  0  0  0  0  0  0
   -4.0755   -0.4596   -0.7342 C   0  0  1  0  0  0  0  0  0  0  0  0
   -4.2512    0.5808   -1.6149 O   0  0  0  0  0  0  0  0  0  0  0  0
   -3.0150   -0.1061    0.2753 C   0  0  1  0  0  0  0  0  0  0  0  0
   -1.6901   -0.1755   -0.2450 N   0  0  0  0  0  0  0  0  0  0  0  0
   -1.4267    0.8074   -1.2764 C   0  0  0  0  0  3  0  0  0  0  0  0
   -0.2058    1.5974   -0.7841 C   0  0  0  0  0  0  0  0  0  0  0  0
    1.0064    0.8947   -1.3166 C   0  0  1  0  0  0  0  0  0  0  0  0
    2.1817    1.4977   -0.9474 O   0  0  0  0  0  0  0  0  0  0  0  0
    0.9706   -0.5887   -1.2159 C   0  0  0  0  0  3  0  0  0  0  0  0
    0.8410   -1.1047    0.0471 O   0  0  0  0  0  0  0  0  0  0  0  0
    2.0725   -1.6432    0.4209 C   0  0  0  0  0  0  0  0  0  0  0  0
    2.9975   -0.6117    0.3948 O   0  0  0  0  0  0  0  0  0  0  0  0
    4.2679   -1.0123    0.7474 C   0  0  1  0  0  0  0  0  0  0  0  0
    4.7322   -1.9900   -0.1181 O   0  0  0  0  0  0  0  0  0  0  0  0
    5.1738    0.1651    0.8914 C   0  0  2  0  0  0  0  0  0  0  0  0
    4.6554    0.9937    1.8848 O   0  0  0  0  0  0  0  0  0  0  0  0
    5.3309    0.9691   -0.3669 C   0  0  0  0  0  3  0  0  0  0  0  0
    5.8564    0.2120   -1.4071 O   0  0  0  0  0  0  0  0  0  0  0  0
    6.8731   -0.5124   -1.0169 O   0  0  0  0  0  0  0  0  0  0  0  0
  2  1  1  6
  2  3  1  0
  3  4  1  0
  4  5  1  1
  4  6  1  0
  6  7  1  1
  6  8  1  0
  8  9  1  6
  8 10  1  0
 10 11  1  6
 11 12  1  0
 12 13  1  0
 13 14  1  0
 14 15  1  1
 14 16  1  0
 16 17  1  0
 17 18  1  0
 18 19  1  0
 19 20  1  0
 20 21  1  6
 20 22  1  0
 22 23  1  1
 22 24  1  0
 24 25  1  0
 25 26  1  0
 10  2  1  0
M  RAD  3  12   2  16   2  24   2
M  END
$$$$
