
     RDKit          3D

 14 15  0  0  0  0  0  0  0  0999 V2000
    1.6843   -1.5922    0.0099 N   0  0  0  0  0  3  0  0  0  0  0  0
    2.7230   -0.9129    0.3346 N   0  0  0  0  0  3  0  0  0  0  0  0
    2.9004    0.4017    0.7172 O   0  0  0  0  0  0  0  0  0  0  0  0
    2.2028    1.5651    0.2890 C   0  0  0  0  0  0  0  0  0  0  0  0
    0.8996    1.6026    0.6482 O   0  0  0  0  0  0  0  0  0  0  0  0
   -0.0254    1.3288   -0.3023 C   0  0  0  0  0  0  0  0  0  0  0  0
   -0.1373   -0.0336   -0.7786 C   0  0  0  0  0  0  0  0  0  0  0  0
    0.3644   -1.1955   -0.3630 C   0  0  0  0  0  0  0  0  0  0  0  0
   -0.4584   -2.3058   -0.2276 O   0  0  0  0  0  0  0  0  0  0  0  0
   -1.8560   -2.0911   -0.1299 C   0  0  0  0  0  0  0  0  0  0  0  0
   -2.1998   -0.6850    0.2775 C   0  0  0  0  0  0  0  0  0  0  0  0
   -2.5012    0.2065   -0.9080 C   0  0  0  0  0  0  0  0  0  0  0  0
   -2.3621    1.5893   -0.5498 N   0  0  0  0  0  0  0  0  0  0  0  0
   -1.2344    2.1220   -0.2687 C   0  0  0  0  0  0  0  0  0  0  0  0
  1  2  2  3
  2  3  1  0
  3  4  1  0
  4  5  1  0
  5  6  1  0
  6  7  1  0
  7  8  2  3
  8  9  1  0
  9 10  1  0
 10 11  1  0
 11 12  1  0
 12 13  1  0
 13 14  2  3
  8  1  1  0
 14  6  1  0
M  CHG  2   1   1   2   1
M  RAD  2   1   2   2   2
M  END
$$$$
