
     RDKit          3D

 28 27  0  0  0  0  0  0  0  0999 V2000
    6.9332    0.4053    2.9501 C   0  0  0  0  0  0  0  0  0  0  0  0
    7.3116   -0.6242    1.8996 C   0  0  0  0  0  0  0  0  0  0  0  0
    6.7522   -1.9800    2.2447 C   0  0  0  0  0  0  0  0  0  0  0  0
    6.7642   -0.1920    0.5667 C   0  0  0  0  0  0  0  0  0  0  0  0
    5.2496   -0.1095    0.6748 C   0  0  0  0  0  0  0  0  0  0  0  0
    4.5940   -0.9130   -0.4226 C   0  0  0  0  0  0  0  0  0  0  0  0
    4.7831   -0.1725   -1.7190 C   0  0  1  0  0  0  0  0  0  0  0  0
    4.2032   -0.9234   -2.8875 C   0  0  0  0  0  0  0  0  0  0  0  0
    4.2084    1.2190   -1.6340 C   0  0  0  0  0  3  0  0  0  0  0  0
    3.6237    1.4188   -0.2470 C   0  0  0  0  0  0  0  0  0  0  0  0
    2.1378    1.1125   -0.2187 C   0  0  0  0  0  0  0  0  0  0  0  0
    1.7476    0.1143   -1.2927 C   0  0  2  0  0  0  0  0  0  0  0  0
    1.2651    0.8786   -2.5185 C   0  0  0  0  0  0  0  0  0  0  0  0
    0.5563   -0.6941   -0.7997 C   0  0  0  0  0  3  0  0  0  0  0  0
    0.3095   -0.3942    0.6542 C   0  0  0  0  0  0  0  0  0  0  0  0
   -1.0621    0.1475    0.9263 C   0  0  0  0  0  0  0  0  0  0  0  0
   -1.0636    1.3753    1.7913 C   0  0  0  0  0  0  0  0  0  0  0  0
   -1.9258    0.2719   -0.2996 C   0  0  0  0  0  0  0  0  0  0  0  0
   -2.9063   -0.8879   -0.3792 C   0  0  0  0  0  0  0  0  0  0  0  0
   -3.8526   -0.8906    0.7996 C   0  0  0  0  0  0  0  0  0  0  0  0
   -3.4587   -0.0438    1.8161 O   0  0  0  0  0  0  0  0  0  0  0  0
   -5.2584   -0.6173    0.3484 C   0  0  0  0  0  0  0  0  0  0  0  0
   -5.2217    0.6614   -0.4659 C   0  0  0  0  0  0  0  0  0  0  0  0
   -6.4368    0.7182   -1.3772 C   0  0  0  0  0  0  0  0  0  0  0  0
   -6.2815   -0.3984   -2.3909 C   0  0  0  0  0  0  0  0  0  0  0  0
   -7.5734    0.4780   -0.6449 O   0  0  0  0  0  0  0  0  0  0  0  0
   -7.6675    0.4884    0.7076 C   0  0  0  0  0  0  0  0  0  0  0  0
   -7.7310    0.4915    1.9180 C   0  0  0  0  0  0  0  0  0  0  0  0
  1  2  1  0
  2  3  1  0
  2  4  1  0
  4  5  1  0
  5  6  1  0
  6  7  1  0
  7  8  1  6
  7  9  1  0
  9 10  1  0
 10 11  1  0
 11 12  1  0
 12 13  1  6
 12 14  1  0
 14 15  1  0
 15 16  1  0
 16 17  1  0
 16 18  1  0
 18 19  1  0
 19 20  1  0
 20 21  1  0
 20 22  1  0
 22 23  1  0
 23 24  1  0
 24 25  1  0
 24 26  1  0
 26 27  1  0
 27 28  3  0
M  RAD  2   9   2  14   2
M  END
$$$$
