
     RDKit          3D

 25 26  0  0  0  0  0  0  0  0999 V2000
   -5.4370   -2.3931   -4.2463 C   0  0  0  0  0  0  0  0  0  0  0  0
   -4.9934   -0.9868   -3.9126 C   0  0  0  0  0  0  0  0  0  0  0  0
   -5.4150   -0.0224   -5.0211 C   0  0  0  0  0  0  0  0  0  0  0  0
   -5.6644   -0.5341   -2.6323 C   0  0  0  0  0  0  0  0  0  0  0  0
   -5.2633   -1.4819   -1.5115 C   0  0  0  0  0  0  0  0  0  0  0  0
   -3.7708   -1.4904   -1.3034 C   0  0  0  0  0  0  0  0  0  0  0  0
   -3.2224   -0.1445   -0.9407 C   0  0  1  0  0  0  0  0  0  0  0  0
   -3.8503    0.3429    0.3380 C   0  0  0  0  0  0  0  0  0  0  0  0
   -1.7353   -0.2329   -0.7829 C   0  0  0  0  0  3  0  0  0  0  0  0
   -1.3647   -1.2323    0.3208 C   0  0  0  0  0  0  0  0  0  0  0  0
   -1.9865   -0.7399    1.5964 C   0  0  0  0  0  0  0  0  0  0  0  0
   -1.4660    0.6087    1.9573 C   0  0  0  0  0  3  0  0  0  0  0  0
    0.0482    0.4753    2.2104 C   0  0  1  0  0  0  0  0  0  0  0  0
    0.5861   -0.0212    0.8726 C   0  0  0  0  0  2  0  0  0  0  0  0
    0.6356    1.7817    2.5362 C   0  0  0  0  0  0  0  0  0  0  0  0
    2.0166    1.9023    2.8472 C   0  0  0  0  0  0  0  0  0  0  0  0
    3.1271    1.5315    1.9620 C   0  0  1  0  0  0  0  0  0  0  0  0
    4.4795    1.8550    2.6583 C   0  0  0  0  0  3  0  0  0  0  0  0
    5.4754    1.7793    1.5298 C   0  0  0  0  0  0  0  0  0  0  0  0
    5.4483    0.7386    0.7432 C   0  0  0  0  0  0  0  0  0  0  0  0
    6.3521    0.6377   -0.3063 O   0  0  0  0  0  0  0  0  0  0  0  0
    4.4761   -0.3329    0.9474 C   0  0  1  0  0  0  0  0  0  0  0  0
    4.7777   -1.2753    2.0932 C   0  0  0  0  0  0  0  0  0  0  0  0
    3.2077    0.0496    1.6196 C   0  0  0  0  0  0  0  0  0  0  0  0
    3.5385   -0.8146    2.8174 C   0  0  0  0  0  3  0  0  0  0  0  0
  1  2  1  0
  2  3  1  0
  2  4  1  0
  4  5  1  0
  5  6  1  0
  6  7  1  0
  7  8  1  1
  7  9  1  0
  9 10  1  0
 10 11  1  0
 11 12  1  0
 12 13  1  0
 13 14  1  6
 13 15  1  0
 15 16  1  0
 17 16  1  1
 17 18  1  0
 18 19  1  0
 19 20  2  0
 20 21  1  0
 20 22  1  0
 22 23  1  1
 17 24  1  0
 24 25  1  0
 24 22  1  0
 25 23  1  0
M  RAD  5   9   2  12   2  14   3  18   2  25   2
M  END
$$$$
