
     RDKit          3D

 29 28  0  0  0  0  0  0  0  0999 V2000
    8.2786    2.3671    0.8792 O   0  0  0  0  0  0  0  0  0  0  0  0
    7.2761    2.4821    0.0385 O   0  0  0  0  0  0  0  0  0  0  0  0
    7.1964    1.3649   -0.7943 C   0  0  0  0  0  3  0  0  0  0  0  0
    6.7785    0.3003    0.0030 O   0  0  0  0  0  0  0  0  0  0  0  0
    5.4520    0.0139   -0.2614 C   0  0  2  0  0  0  0  0  0  0  0  0
    5.2084   -1.4583   -0.5246 C   0  0  0  0  0  0  0  0  0  0  0  0
    4.9347    0.8443   -1.4038 C   0  0  0  0  0  3  0  0  0  0  0  0
    4.0065    1.9519   -0.9422 C   0  0  0  0  0  3  0  0  0  0  0  0
    2.5723    1.5853   -1.2670 C   0  0  0  0  0  3  0  0  0  0  0  0
    1.8065    1.5427    0.0291 C   0  0  0  0  0  0  0  0  0  0  0  0
    1.2757    0.1806    0.3636 C   0  0  2  0  0  0  0  0  0  0  0  0
    2.2126   -0.9180    0.0684 C   0  0  0  0  0  0  0  0  0  0  0  0
    2.3232   -1.4781   -1.0029 O   0  0  0  0  0  0  0  0  0  0  0  0
    0.0409   -0.0904   -0.2103 O   0  0  0  0  0  0  0  0  0  0  0  0
   -0.7442   -0.5088    0.7731 O   0  0  0  0  0  0  0  0  0  0  0  0
   -1.6555    0.5284    0.9967 C   0  0  0  0  0  3  0  0  0  0  0  0
   -2.3671    0.8695   -0.1414 O   0  0  0  0  0  0  0  0  0  0  0  0
   -2.6537   -0.2215   -0.9455 C   0  0  2  0  0  0  0  0  0  0  0  0
   -4.0104   -0.1053   -1.6012 C   0  0  0  0  0  0  0  0  0  0  0  0
   -4.3871   -1.3768   -2.0235 O   0  0  0  0  0  0  0  0  0  0  0  0
   -5.6490   -1.5956   -1.7320 O   0  0  0  0  0  0  0  0  0  0  0  0
   -5.9624   -2.9467   -1.6715 C   0  0  0  0  0  2  0  0  0  0  0  0
   -2.5696   -1.4943   -0.1532 C   0  0  0  0  0  3  0  0  0  0  0  0
   -3.7582   -1.8575    0.4498 O   0  0  0  0  0  0  0  0  0  0  0  0
   -4.1412   -0.9957    1.4737 C   0  0  2  0  0  0  0  0  0  0  0  0
   -4.4707   -1.7785    2.5911 O   0  0  0  0  0  0  0  0  0  0  0  0
   -5.4262   -0.3147    1.0233 C   0  0  0  0  0  3  0  0  0  0  0  0
   -5.5849    1.0439    1.6491 C   0  0  0  0  0  0  0  0  0  0  0  0
   -5.9822    2.0651    0.6111 C   0  0  0  0  0  2  0  0  0  0  0  0
  1  2  1  0
  2  3  1  0
  3  4  1  0
  4  5  1  0
  5  6  1  6
  5  7  1  0
  7  8  1  0
  8  9  1  0
  9 10  1  0
 11 10  1  6
 11 12  1  0
 12 13  2  0
 11 14  1  0
 14 15  1  0
 15 16  1  0
 16 17  1  0
 17 18  1  0
 18 19  1  1
 19 20  1  0
 20 21  1  0
 21 22  1  0
 18 23  1  0
 23 24  1  0
 24 25  1  0
 25 26  1  1
 25 27  1  0
 27 28  1  0
 28 29  1  0
M  RAD  8   3   2   7   2   8   2   9   2  16   2  22   3  23   2  27   2
M  RAD  1  29   3
M  END
$$$$
