
     RDKit          2D

 18 19  0  0  0  0  0  0  0  0999 V2000
   -2.2458    1.6317    0.0000 O   0  0  0  0  0  0  0  0  0  0  0  0
   -1.0323    0.7500    0.0000 C   0  0  0  0  0  0  0  0  0  0  0  0
    0.3943    1.2135    0.0000 N   0  0  0  0  0  0  0  0  0  0  0  0
    1.2760    0.0000    0.0000 C   0  0  0  0  0  0  0  0  0  0  0  0
    0.3943   -1.2135    0.0000 C   0  0  0  0  0  0  0  0  0  0  0  0
    0.8578   -2.6401    0.0000 C   0  0  0  0  0  0  0  0  0  0  0  0
   -0.1459   -3.7548    0.0000 C   0  0  0  0  0  0  0  0  0  0  0  0
    0.3177   -5.1814    0.0000 F   0  0  0  0  0  0  0  0  0  0  0  0
   -1.0323   -0.7500    0.0000 C   0  0  0  0  0  0  0  0  0  0  0  0
    0.3943   -0.2865    0.0000 C   0  0  0  0  0  0  0  0  0  0  0  0
    1.6078   -1.1682    0.0000 C   0  0  0  0  0  0  0  0  0  0  0  0
    2.9781   -0.5580    0.0000 C   0  0  0  0  0  0  0  0  0  0  0  0
    4.1917   -1.4397    0.0000 C   0  0  0  0  0  0  0  0  0  0  0  0
    5.5620   -0.8296    0.0000 N   0  0  0  0  0  0  0  0  0  0  0  0
    6.7755   -1.7113    0.0000 C   0  0  0  0  0  0  0  0  0  0  0  0
    8.1458   -1.1012    0.0000 C   0  0  0  0  0  0  0  0  0  0  0  0
    9.3594   -1.9829    0.0000 C   0  0  0  0  0  0  0  0  0  0  0  0
   10.7297   -1.3728    0.0000 Cl  0  0  0  0  0  0  0  0  0  0  0  0
  1  2  2  0
  2  3  1  0
  3  4  1  0
  4  5  2  0
  5  6  1  0
  6  7  2  3
  7  8  1  0
  2  9  1  0
  9 10  1  0
 10 11  1  0
 11 12  2  3
 12 13  1  0
 13 14  1  0
 14 15  1  0
 15 16  2  3
 16 17  1  0
 17 18  1  0
 10  3  1  0
  9  5  1  0
M  END
$$$$
