
     RDKit          2D

 85 89  0  0  0  0  0  0  0  0999 V2000
  -33.7424  -22.0031    0.0000 C   0  0  0  0  0  0  0  0  0  0  0  0
  -34.7533  -20.8950    0.0000 C   0  0  0  0  0  0  0  0  0  0  0  0
  -36.2185  -21.2165    0.0000 C   0  0  0  0  0  0  0  0  0  0  0  0
  -37.2295  -20.1084    0.0000 C   0  0  0  0  0  0  0  0  0  0  0  0
  -38.6946  -20.4298    0.0000 O   0  0  0  0  0  0  0  0  0  0  0  0
  -36.7753  -18.6788    0.0000 C   0  0  0  0  0  0  0  0  0  0  0  0
  -37.7863  -17.5706    0.0000 O   0  0  0  0  0  0  0  0  0  0  0  0
  -35.3101  -18.3573    0.0000 C   0  0  0  0  0  0  0  0  0  0  0  0
  -34.8560  -16.9277    0.0000 O   0  0  0  0  0  0  0  0  0  0  0  0
  -34.2992  -19.4654    0.0000 C   0  0  0  0  0  0  0  0  0  0  0  0
  -32.8340  -19.1439    0.0000 N   0  0  0  0  0  0  0  0  0  0  0  0
  -31.8231  -20.2521    0.0000 C   0  0  0  0  0  3  0  0  0  0  0  0
  -30.3579  -19.9306    0.0000 C   0  0  0  0  0  0  0  0  0  0  0  0
  -29.3469  -21.0387    0.0000 O   0  0  0  0  0  0  0  0  0  0  0  0
  -27.8818  -20.7173    0.0000 C   0  0  0  0  0  0  0  0  0  0  0  0
  -26.8708  -21.8254    0.0000 C   0  0  0  0  0  0  0  0  0  0  0  0
  -27.3250  -23.2550    0.0000 C   0  0  0  0  0  0  0  0  0  0  0  0
  -28.7901  -23.5764    0.0000 O   0  0  0  0  0  0  0  0  0  0  0  0
  -25.4057  -21.5039    0.0000 C   0  0  0  0  0  0  0  0  0  0  0  0
  -24.3947  -22.6120    0.0000 O   0  0  0  0  0  0  0  0  0  0  0  0
  -24.9515  -20.0743    0.0000 C   0  0  0  0  0  0  0  0  0  0  0  0
  -25.9625  -18.9662    0.0000 O   0  0  0  0  0  0  0  0  0  0  0  0
  -23.4863  -19.7528    0.0000 C   0  0  0  0  0  3  0  0  0  0  0  0
  -23.0322  -18.3233    0.0000 C   0  0  0  0  0  0  0  0  0  0  0  0
  -21.5670  -18.0018    0.0000 O   0  0  0  0  0  0  0  0  0  0  0  0
  -21.1128  -16.5722    0.0000 O   0  0  0  0  0  0  0  0  0  0  0  0
  -19.6477  -16.2507    0.0000 O   0  0  0  0  0  0  0  0  0  0  0  0
  -19.1935  -14.8211    0.0000 O   0  0  0  0  0  0  0  0  0  0  0  0
  -17.7284  -14.4997    0.0000 C   0  0  0  0  0  3  0  0  0  0  0  0
  -17.2742  -13.0701    0.0000 O   0  0  0  0  0  0  0  0  0  0  0  0
  -15.8091  -12.7486    0.0000 C   0  0  0  0  0  0  0  0  0  0  0  0
  -15.3549  -11.3190    0.0000 O   0  0  0  0  0  0  0  0  0  0  0  0
  -13.8897  -10.9976    0.0000 O   0  0  0  0  0  0  0  0  0  0  0  0
  -13.4356   -9.5680    0.0000 C   0  0  0  0  0  3  0  0  0  0  0  0
  -11.9704   -9.2465    0.0000 O   0  0  0  0  0  0  0  0  0  0  0  0
  -11.5162   -7.8169    0.0000 O   0  0  0  0  0  0  0  0  0  0  0  0
  -10.0511   -7.4954    0.0000 C   0  0  0  0  0  3  0  0  0  0  0  0
   -9.5969   -6.0659    0.0000 C   0  0  0  0  0  0  0  0  0  0  0  0
  -10.6079   -4.9577    0.0000 N   0  0  0  0  0  0  0  0  0  0  0  0
   -8.1318   -5.7444    0.0000 C   0  0  0  0  0  0  0  0  0  0  0  0
   -7.6776   -4.3148    0.0000 C   0  0  0  0  0  0  0  0  0  0  0  0
   -6.2124   -3.9933    0.0000 O   0  0  0  0  0  0  0  0  0  0  0  0
   -5.7583   -2.5637    0.0000 C   0  0  0  0  0  3  0  0  0  0  0  0
   -4.2931   -2.2423    0.0000 C   0  0  0  0  0  0  0  0  0  0  0  0
   -3.8389   -0.8127    0.0000 C   0  0  0  0  0  0  0  0  0  0  0  0
   -4.5053    0.5312    0.0000 C   0  0  0  0  0  3  0  0  0  0  0  0
   -4.5675    2.0299    0.0000 C   0  0  0  0  0  0  0  0  0  0  0  0
   -4.0147    3.4243    0.0000 C   0  0  0  0  0  0  0  0  0  0  0  0
   -2.9425    4.4733    0.0000 C   0  0  0  0  0  0  0  0  0  0  0  0
   -1.5364    4.9956    0.0000 C   0  0  0  0  0  3  0  0  0  0  0  0
   -0.0394    4.9008    0.0000 O   0  0  0  0  0  0  0  0  0  0  0  0
    1.2896    4.2052    0.0000 C   0  0  0  0  0  3  0  0  0  0  0  0
    2.2208    3.0293    0.0000 O   0  0  0  0  0  0  0  0  0  0  0  0
    2.5932    1.5763    0.0000 C   0  0  0  0  0  0  0  0  0  0  0  0
    2.3425    0.0974    0.0000 O   0  0  0  0  0  0  0  0  0  0  0  0
    1.5118   -1.1517    0.0000 C   0  0  0  0  0  3  0  0  0  0  0  0
    0.2450   -1.9548    0.0000 O   0  0  0  0  0  0  0  0  0  0  0  0
   -1.2390   -2.1733    0.0000 C   0  0  0  0  0  0  0  0  0  0  0  0
   -1.3339   -3.6703    0.0000 C   0  0  0  0  0  0  0  0  0  0  0  0
   -0.0848   -4.5010    0.0000 C   0  0  0  0  0  2  0  0  0  0  0  0
   -5.3178   -0.5618    0.0000 O   0  0  0  0  0  0  0  0  0  0  0  0
   -2.6836   -1.7693    0.0000 C   0  0  0  0  0  0  0  0  0  0  0  0
   -3.3791   -3.0983    0.0000 S   0  0  0  0  0  0  0  0  0  0  0  0
   -2.2754   -4.1141    0.0000 O   0  0  0  0  0  0  0  0  0  0  0  0
   -0.8117   -4.4420    0.0000 C   0  0  0  0  0  0  0  0  0  0  0  0
    0.6199   -3.9940    0.0000 O   0  0  0  0  0  0  0  0  0  0  0  0
    1.6357   -2.8903    0.0000 O   0  0  0  0  0  0  0  0  0  0  0  0
    1.9635   -1.4266    0.0000 C   0  0  0  0  0  0  0  0  0  0  0  0
    2.4271    0.0000    0.0000 O   0  0  0  0  0  0  0  0  0  0  0  0
    0.7500   -2.3083    0.0000 C   0  0  0  0  0  3  0  0  0  0  0  0
   -0.7500   -2.3083    0.0000 O   0  0  0  0  0  0  0  0  0  0  0  0
   -1.9635   -1.4266    0.0000 C   0  0  0  0  0  0  0  0  0  0  0  0
   -2.7899   -2.6784    0.0000 C   0  0  0  0  0  0  0  0  0  0  0  0
   -1.7318   -3.7417    0.0000 C   0  0  0  0  0  0  0  0  0  0  0  0
   -4.2838   -2.8129    0.0000 O   0  0  0  0  0  0  0  0  0  0  0  0
   -5.3204   -1.7287    0.0000 C   0  0  0  0  0  0  0  0  0  0  0  0
   -5.1191   -0.2423    0.0000 C   0  0  0  0  0  0  0  0  0  0  0  0
   -6.3709    0.5841    0.0000 O   0  0  0  0  0  0  0  0  0  0  0  0
   -3.8314    0.5271    0.0000 C   0  0  0  0  0  3  0  0  0  0  0  0
   -2.4271    0.0000    0.0000 C   0  0  0  0  0  0  0  0  0  0  0  0
   -1.9635    1.4266    0.0000 C   0  0  0  0  0  0  0  0  0  0  0  0
   -0.7500    2.3083    0.0000 O   0  0  0  0  0  0  0  0  0  0  0  0
    0.7500    2.3083    0.0000 C   0  0  0  0  0  3  0  0  0  0  0  0
    1.9635    1.4266    0.0000 C   0  0  0  0  0  0  0  0  0  0  0  0
    3.1771    2.3083    0.0000 O   0  0  0  0  0  0  0  0  0  0  0  0
  2  1  1  1
  2  3  1  0
  3  4  1  0
  4  5  1  6
  4  6  1  0
  6  7  1  6
  6  8  1  0
  8  9  1  1
  8 10  1  0
 10 11  1  1
 11 12  1  0
 12 13  1  0
 13 14  1  0
 14 15  1  0
 16 15  1  6
 16 17  1  0
 17 18  1  0
 16 19  1  0
 19 20  1  6
 19 21  1  0
 21 22  1  6
 21 23  1  0
 23 24  1  0
 24 25  1  0
 25 26  1  0
 26 27  1  0
 27 28  1  0
 28 29  1  0
 29 30  1  0
 30 31  1  0
 31 32  1  0
 32 33  1  0
 33 34  1  0
 34 35  1  0
 35 36  1  0
 36 37  1  0
 37 38  1  0
 38 39  1  6
 38 40  1  0
 40 41  1  0
 41 42  1  0
 42 43  1  0
 43 44  1  0
 44 45  1  0
 45 46  1  0
 46 47  1  0
 47 48  1  0
 48 49  1  0
 49 50  1  0
 50 51  1  0
 51 52  1  0
 52 53  1  0
 53 54  1  0
 54 55  1  0
 55 56  1  0
 56 57  1  0
 57 58  1  0
 58 59  1  0
 59 60  1  0
 45 61  1  0
 45 62  1  0
 62 63  1  6
 63 64  1  0
 64 65  1  0
 65 66  1  0
 66 67  1  0
 68 67  1  1
 68 69  1  0
 68 70  1  0
 70 71  1  0
 71 72  1  0
 72 73  1  0
 73 74  1  6
 73 75  1  0
 75 76  1  0
 76 77  1  0
 77 78  1  6
 77 79  1  0
 80 79  1  1
 80 81  1  0
 81 82  1  0
 82 83  1  0
 83 84  1  0
 84 85  1  1
 10  2  1  0
 62 58  1  0
 76 63  1  6
 84 69  1  0
 80 72  1  0
M  RAD  8  12   2  23   2  29   2  34   2  37   2  43   2  46   2  50   2
M  RAD  6  52   2  56   2  60   3  70   2  79   2  83   2
M  END
$$$$
