
     RDKit          3D

 12 12  0  0  0  0  0  0  0  0999 V2000
    3.2885   -0.2701    0.6704 O   0  0  0  0  0  0  0  0  0  0  0  0
    2.1643    0.5262    0.5513 C   0  0  0  0  0  0  0  0  0  0  0  0
    1.0694   -0.1520   -0.2518 C   0  0  1  0  0  0  0  0  0  0  0  0
    0.7060   -1.3735    0.4237 N   0  0  0  0  0  0  0  0  0  0  0  0
   -0.3372   -2.0872   -0.2551 C   0  0  0  0  0  0  0  0  0  0  0  0
   -1.5596   -1.2242   -0.4223 C   0  0  2  0  0  0  0  0  0  0  0  0
   -1.9723   -1.1774   -1.7340 O   0  0  0  0  0  0  0  0  0  0  0  0
   -1.3280    0.1414    0.1486 C   0  0  1  0  0  0  0  0  0  0  0  0
   -1.2218    0.0401    1.5277 O   0  0  0  0  0  0  0  0  0  0  0  0
   -0.0960    0.7801   -0.4622 C   0  0  1  0  0  0  0  0  0  0  0  0
    0.1459    1.9549    0.2592 O   0  0  0  0  0  0  0  0  0  0  0  0
   -0.8592    2.8417    0.1189 N   0  0  0  0  0  0  0  0  0  0  0  0
  1  2  1  0
  3  2  1  1
  3  4  1  0
  4  5  1  0
  5  6  1  0
  6  7  1  6
  6  8  1  0
  8  9  1  1
  8 10  1  0
 10 11  1  1
 11 12  1  0
 10  3  1  0
M  END
$$$$
