
     RDKit          2D

 64 63  0  0  0  0  0  0  0  0999 V2000
   -6.4952   -6.7500    0.0000 O   0  0  0  0  0  0  0  0  0  0  0  0
   -5.1962   -6.0000    0.0000 C   0  0  0  0  0  0  0  0  0  0  0  0
   -5.1962   -4.5000    0.0000 C   0  0  0  0  0  3  0  0  0  0  0  0
   -3.8971   -3.7500    0.0000 N   0  0  0  0  0  0  0  0  0  0  0  0
   -3.8971   -2.2500    0.0000 C   0  0  0  0  0  0  0  0  0  0  0  0
   -5.1962   -1.5000    0.0000 C   0  0  0  0  0  0  0  0  0  0  0  0
   -6.4952   -2.2500    0.0000 O   0  0  0  0  0  0  0  0  0  0  0  0
   -2.5981   -1.5000    0.0000 C   0  0  0  0  0  0  0  0  0  0  0  0
   -2.5981   -0.0000    0.0000 O   0  0  0  0  0  0  0  0  0  0  0  0
   -1.2990   -2.2500    0.0000 C   0  0  0  0  0  0  0  0  0  0  0  0
   -1.2990   -3.7500    0.0000 O   0  0  0  0  0  0  0  0  0  0  0  0
    0.0000   -1.5000    0.0000 C   0  0  0  0  0  3  0  0  0  0  0  0
    1.2990   -2.2500    0.0000 C   0  0  0  0  0  3  0  0  0  0  0  0
    2.5981   -1.5000    0.0000 C   0  0  0  0  0  0  0  0  0  0  0  0
    3.8971   -2.2500    0.0000 O   0  0  0  0  0  0  0  0  0  0  0  0
    5.1962   -1.5000    0.0000 C   0  0  0  0  0  0  0  0  0  0  0  0
    6.4952   -2.2500    0.0000 C   0  0  0  0  0  2  0  0  0  0  0  0
    5.1962    0.0000    0.0000 C   0  0  0  0  0  0  0  0  0  0  0  0
    3.8971    0.7500    0.0000 C   0  0  0  0  0  0  0  0  0  0  0  0
    2.5981   -0.0000    0.0000 C   0  0  0  0  0  0  0  0  0  0  0  0
    1.2990    0.7500    0.0000 O   0  0  0  0  0  0  0  0  0  0  0  0
    1.2990    2.2500    0.0000 C   0  0  0  0  0  3  0  0  0  0  0  0
   -0.0000    3.0000    0.0000 C   0  0  0  0  0  0  0  0  0  0  0  0
   -0.0000    4.5000    0.0000 C   0  0  0  0  0  2  0  0  0  0  0  0
   -1.2990    2.2500    0.0000 C   0  0  0  0  0  0  0  0  0  0  0  0
   -2.5981    3.0000    0.0000 O   0  0  0  0  0  0  0  0  0  0  0  0
   -3.8971    2.2500    0.0000 C   0  0  0  0  0  0  0  0  0  0  0  0
   -5.1962    3.0000    0.0000 C   0  0  0  0  0  2  0  0  0  0  0  0
    3.8971    2.2500    0.0000 O   0  0  0  0  0  0  0  0  0  0  0  0
    5.1962    3.0000    0.0000 C   0  0  0  0  0  0  0  0  0  0  0  0
    6.4952    2.2500    0.0000 O   0  0  0  0  0  0  0  0  0  0  0  0
    6.4952    0.7500    0.0000 C   0  0  0  0  0  0  0  0  0  0  0  0
    7.7942   -0.0000    0.0000 N   0  0  0  0  0  3  0  0  0  0  0  0
    9.0933    0.7500    0.0000 O   0  0  0  0  0  0  0  0  0  0  0  0
    7.7942   -1.5000    0.0000 C   0  0  0  0  0  3  0  0  0  0  0  0
    9.0933   -2.2500    0.0000 N   0  0  0  0  0  2  0  0  0  0  0  0
    9.0933   -3.7500    0.0000 C   0  0  0  0  0  2  0  0  0  0  0  0
    5.1962    4.5000    0.0000 O   0  0  0  0  0  0  0  0  0  0  0  0
    6.4952    5.2500    0.0000 C   0  0  0  0  0  0  0  0  0  0  0  0
    7.7942    4.5000    0.0000 C   0  0  0  0  0  0  0  0  0  0  0  0
    9.0933    5.2500    0.0000 O   0  0  0  0  0  0  0  0  0  0  0  0
   10.3923    4.5000    0.0000 C   0  0  0  0  0  3  0  0  0  0  0  0
   11.6913    5.2500    0.0000 C   0  0  0  0  0  2  0  0  0  0  0  0
    6.4952    6.7500    0.0000 C   0  0  0  0  0  0  0  0  0  0  0  0
    7.7942    7.5000    0.0000 C   0  0  0  0  0  3  0  0  0  0  0  0
    7.7942    9.0000    0.0000 C   0  0  0  0  0  3  0  0  0  0  0  0
    9.0933    9.7500    0.0000 C   0  0  0  0  0  0  0  0  0  0  0  0
    9.0933   11.2500    0.0000 C   0  0  0  0  0  3  0  0  0  0  0  0
   10.3923   12.0000    0.0000 C   0  0  0  0  0  3  0  0  0  0  0  0
   10.3923   13.5000    0.0000 C   0  0  0  0  0  3  0  0  0  0  0  0
   11.6913   14.2500    0.0000 C   0  0  0  0  0  3  0  0  0  0  0  0
   11.6913   15.7500    0.0000 C   0  0  0  0  0  0  0  0  0  0  0  0
   12.9904   16.5000    0.0000 C   0  0  0  0  0  3  0  0  0  0  0  0
   12.9904   18.0000    0.0000 C   0  0  0  0  0  3  0  0  0  0  0  0
   14.2894   18.7500    0.0000 O   0  0  0  0  0  0  0  0  0  0  0  0
   14.2894   20.2500    0.0000 C   0  0  0  0  0  0  0  0  0  0  0  0
   15.5885   21.0000    0.0000 O   0  0  0  0  0  0  0  0  0  0  0  0
   15.5885   22.5000    0.0000 C   0  0  0  0  0  3  0  0  0  0  0  0
   16.8875   23.2500    0.0000 C   0  0  0  0  0  0  0  0  0  0  0  0
   16.8875   24.7500    0.0000 C   0  0  0  0  0  3  0  0  0  0  0  0
   18.1865   25.5000    0.0000 C   0  0  0  0  0  3  0  0  0  0  0  0
   18.1865   27.0000    0.0000 C   0  0  0  0  0  3  0  0  0  0  0  0
   19.4856   27.7500    0.0000 C   0  0  0  0  0  3  0  0  0  0  0  0
   19.4856   29.2500    0.0000 C   0  0  0  0  0  2  0  0  0  0  0  0
  1  2  1  0
  2  3  1  0
  3  4  1  0
  4  5  1  0
  5  6  1  6
  6  7  1  0
  5  8  1  0
  8  9  1  1
  8 10  1  0
 10 11  1  1
 10 12  1  0
 12 13  1  0
 13 14  1  0
 14 15  1  0
 15 16  1  0
 16 17  1  6
 16 18  1  0
 19 18  1  1
 19 20  1  0
 20 21  1  0
 21 22  1  0
 22 23  1  0
 23 24  1  6
 23 25  1  0
 25 26  1  0
 26 27  1  0
 27 28  1  0
 19 29  1  0
 30 29  1  1
 30 31  1  0
 31 32  1  0
 32 33  1  0
 33 34  1  0
 33 35  1  0
 35 36  1  0
 36 37  1  0
 30 38  1  0
 38 39  1  0
 39 40  1  6
 40 41  1  0
 41 42  1  0
 42 43  1  0
 39 44  1  0
 44 45  1  0
 45 46  1  0
 46 47  1  0
 47 48  1  0
 48 49  1  0
 49 50  1  0
 50 51  1  0
 51 52  1  0
 52 53  1  0
 53 54  1  0
 54 55  1  0
 55 56  1  0
 56 57  1  0
 57 58  1  0
 58 59  1  0
 59 60  1  0
 60 61  1  0
 61 62  1  0
 62 63  1  0
 63 64  1  0
M  RAD  8   3   2  12   2  13   2  17   3  22   2  24   3  28   3  33   2
M  RAD  8  35   2  36   3  37   3  42   2  43   3  45   2  46   2  48   2
M  RAD  8  49   2  50   2  51   2  53   2  54   2  58   2  60   2  61   2
M  CHG  2  33   1  36   1
M  RAD  3  62   2  63   2  64   3
M  END
$$$$
