
     RDKit          3D

 19 18  0  0  0  0  0  0  0  0999 V2000
   -3.2674   -3.9268   -0.4749 N   0  0  0  0  0  0  0  0  0  0  0  0
   -2.3601   -3.4004   -1.4638 C   0  0  1  0  0  0  0  0  0  0  0  0
   -3.1632   -2.3338   -2.6919 S   0  0  0  0  0  0  0  0  0  0  0  0
   -3.3054   -0.7327   -2.5778 C   0  0  0  0  0  0  0  0  0  0  0  0
   -2.7566   -0.0521   -1.4086 C   0  0  0  0  0  0  0  0  0  0  0  0
   -2.8529    1.2771   -1.2724 C   0  0  0  0  0  0  0  0  0  0  0  0
   -2.3136    2.0164   -0.1054 C   0  0  0  0  0  0  0  0  0  0  0  0
   -1.2939    3.0093   -0.6469 C   0  0  0  0  0  0  0  0  0  0  0  0
   -0.7210    3.7576    0.3362 F   0  0  0  0  0  0  0  0  0  0  0  0
   -1.3030   -2.7012   -0.7463 C   0  0  0  0  0  0  0  0  0  0  0  0
   -0.4427   -2.1389   -0.1656 N   0  0  0  0  0  4  0  0  0  0  0  0
    0.5451   -1.4861    0.4889 N   0  0  0  0  0  0  0  0  0  0  0  0
    0.6578    0.2385    0.3516 S   0  0  0  0  0  0  0  0  0  0  0  0
    1.4428    0.8682    1.8120 N   0  0  0  0  0  0  0  0  0  0  0  0
    2.8064    1.1254    1.8150 N   0  0  0  0  0  0  0  0  0  0  0  0
    3.6583    0.4561    1.1363 C   0  0  0  0  0  0  0  0  0  0  0  0
    5.0177    0.8070    1.2167 O   0  0  0  0  0  0  0  0  0  0  0  0
    5.3823    1.9948    1.7982 N   0  0  0  0  0  2  0  0  0  0  0  0
    4.2696    2.4685    2.5987 C   0  0  0  0  0  2  0  0  0  0  0  0
  2  1  1  1
  2  3  1  0
  3  4  2  0
  4  5  1  0
  5  6  2  0
  6  7  1  0
  7  8  1  0
  8  9  1  0
  2 10  1  0
 10 11  3  0
 11 12  1  0
 12 13  1  0
 13 14  1  0
 14 15  1  0
 15 16  2  3
 16 17  1  0
 17 18  1  0
 18 19  1  0
M  CHG  2  11   1  18   1
M  RAD  2  18   3  19   3
M  END
$$$$
