
     RDKit          3D

  9  8  0  0  0  0  0  0  0  0999 V2000
   -2.8431    1.3445   -0.6350 C   0  0  0  0  0  0  0  0  0  0  0  0
   -2.9848    0.0382   -0.9354 C   0  0  0  0  0  0  0  0  0  0  0  0
   -2.2821   -0.9577   -0.1007 C   0  0  0  0  0  0  0  0  0  0  0  0
   -1.4841   -0.2737    1.0062 C   0  0  0  0  0  3  0  0  0  0  0  0
    0.1861    0.0801    0.3918 S   0  0  0  0  0  0  0  0  0  0  0  0
    1.2047   -1.0773   -0.1189 C   0  0  0  0  0  0  0  0  0  0  0  0
    2.4642   -0.8575   -0.5869 O   0  0  0  0  0  0  0  0  0  0  0  0
    3.2164    0.2610   -0.1335 C   0  0  0  0  0  0  0  0  0  0  0  0
    2.5226    1.4425   -0.4552 O   0  0  0  0  0  1  0  0  0  0  0  0
  1  2  2  0
  2  3  1  0
  3  4  1  0
  4  5  1  0
  5  6  2  3
  6  7  1  0
  7  8  1  0
  8  9  1  0
M  CHG  1   9  -1
M  RAD  1   4   2
M  END
$$$$
