
     RDKit          2D

 97 96  0  0  0  0  0  0  0  0999 V2000
    0.0000    0.0000    0.0000 C   0  0  0  0  0  0  0  0  0  0  0  0
    1.2990    0.7500    0.0000 O   0  0  0  0  0  0  0  0  0  0  0  0
    2.5981   -0.0000    0.0000 C   0  0  0  0  0  3  0  0  0  0  0  0
    3.8971    0.7500    0.0000 O   0  0  0  0  0  0  0  0  0  0  0  0
    5.1962   -0.0000    0.0000 C   0  0  0  0  0  0  0  0  0  0  0  0
    6.4952    0.7500    0.0000 C   0  0  0  0  0  0  0  0  0  0  0  0
    7.7942   -0.0000    0.0000 C   0  0  0  0  0  2  0  0  0  0  0  0
    5.1962   -1.5000    0.0000 C   0  0  0  0  0  0  0  0  0  0  0  0
    6.4952   -2.2500    0.0000 C   0  0  0  0  0  3  0  0  0  0  0  0
    6.4952   -3.7500    0.0000 C   0  0  0  0  0  0  0  0  0  0  0  0
    7.7942   -4.5000    0.0000 C   0  0  0  0  0  0  0  0  0  0  0  0
    7.7942   -6.0000    0.0000 C   0  0  0  0  0  0  0  0  0  0  0  0
    9.0933   -3.7500    0.0000 O   0  0  0  0  0  0  0  0  0  0  0  0
   10.3923   -4.5000    0.0000 C   0  0  0  0  0  0  0  0  0  0  0  0
   11.6913   -3.7500    0.0000 C   0  0  0  0  0  0  0  0  0  0  0  0
   12.9904   -4.5000    0.0000 O   0  0  0  0  0  0  0  0  0  0  0  0
   14.2894   -3.7500    0.0000 C   0  0  0  0  0  0  0  0  0  0  0  0
   15.5885   -4.5000    0.0000 O   0  0  0  0  0  0  0  0  0  0  0  0
   16.8875   -3.7500    0.0000 C   0  0  0  0  0  0  0  0  0  0  0  0
   18.1865   -4.5000    0.0000 C   0  0  0  0  0  0  0  0  0  0  0  0
   16.8875   -2.2500    0.0000 O   0  0  0  0  0  0  0  0  0  0  0  0
   18.1865   -1.5000    0.0000 O   0  0  0  0  0  0  0  0  0  0  0  0
   18.1865   -0.0000    0.0000 C   0  0  0  0  0  0  0  0  0  0  0  0
   19.4856    0.7500    0.0000 C   0  0  0  0  0  3  0  0  0  0  0  0
   19.4856    2.2500    0.0000 O   0  0  0  0  0  0  0  0  0  0  0  0
   20.7846    3.0000    0.0000 C   0  0  0  0  0  0  0  0  0  0  0  0
   22.0836    2.2500    0.0000 O   0  0  0  0  0  0  0  0  0  0  0  0
   20.7846    4.5000    0.0000 C   0  0  0  0  0  0  0  0  0  0  0  0
   22.0836    5.2500    0.0000 C   0  0  0  0  0  0  0  0  0  0  0  0
   22.0836    6.7500    0.0000 O   0  0  0  0  0  0  0  0  0  0  0  0
   23.3827    7.5000    0.0000 C   0  0  0  0  0  3  0  0  0  0  0  0
   23.3827    9.0000    0.0000 C   0  0  0  0  0  0  0  0  0  0  0  0
   24.6817    9.7500    0.0000 C   0  0  0  0  0  3  0  0  0  0  0  0
   24.6817   11.2500    0.0000 C   0  0  0  0  0  0  0  0  0  0  0  0
   23.3827   12.0000    0.0000 O   0  0  0  0  0  0  0  0  0  0  0  0
   25.9808   12.0000    0.0000 C   0  0  0  0  0  3  0  0  0  0  0  0
   25.9808   13.5000    0.0000 O   0  0  0  0  0  0  0  0  0  0  0  0
   27.2798   14.2500    0.0000 C   0  0  0  0  0  0  0  0  0  0  0  0
   27.2798   15.7500    0.0000 O   0  0  0  0  0  0  0  0  0  0  0  0
   28.5788   13.5000    0.0000 O   0  0  0  0  0  0  0  0  0  0  0  0
   29.8779   14.2500    0.0000 C   0  0  0  0  0  3  0  0  0  0  0  0
   31.1769   13.5000    0.0000 O   0  0  0  0  0  0  0  0  0  0  0  0
   32.4760   14.2500    0.0000 C   0  0  0  0  0  3  0  0  0  0  0  0
   33.7750   13.5000    0.0000 C   0  0  0  0  0  0  0  0  0  0  0  0
   35.0740   14.2500    0.0000 O   0  0  0  0  0  0  0  0  0  0  0  0
    3.8971   -2.2500    0.0000 C   0  0  0  0  0  3  0  0  0  0  0  0
    3.8971   -3.7500    0.0000 C   0  0  0  0  0  3  0  0  0  0  0  0
    2.5981   -4.5000    0.0000 O   0  0  0  0  0  0  0  0  0  0  0  0
    2.5981   -6.0000    0.0000 C   0  0  0  0  0  3  0  0  0  0  0  0
    1.2990   -6.7500    0.0000 O   0  0  0  0  0  0  0  0  0  0  0  0
    1.2990   -8.2500    0.0000 C   0  0  0  0  0  3  0  0  0  0  0  0
    0.0000   -9.0000    0.0000 O   0  0  0  0  0  0  0  0  0  0  0  0
    0.0000  -10.5000    0.0000 C   0  0  0  0  0  0  0  0  0  0  0  0
   -1.2990  -11.2500    0.0000 O   0  0  0  0  0  0  0  0  0  0  0  0
    1.2990  -11.2500    0.0000 O   0  0  0  0  0  0  0  0  0  0  0  0
    1.2990  -12.7500    0.0000 O   0  0  0  0  0  0  0  0  0  0  0  0
    2.5981  -13.5000    0.0000 O   0  0  0  0  0  0  0  0  0  0  0  0
    2.5981  -15.0000    0.0000 C   0  0  0  0  0  0  0  0  0  0  0  0
    3.8971  -15.7500    0.0000 O   0  0  0  0  0  0  0  0  0  0  0  0
    1.2990  -15.7500    0.0000 O   0  0  0  0  0  0  0  0  0  0  0  0
    1.2990  -17.2500    0.0000 O   0  0  0  0  0  0  0  0  0  0  0  0
    0.0000  -18.0000    0.0000 O   0  0  0  0  0  0  0  0  0  0  0  0
    0.0000  -19.5000    0.0000 C   0  0  0  0  0  3  0  0  0  0  0  0
   -1.2990  -20.2500    0.0000 C   0  0  0  0  0  0  0  0  0  0  0  0
   -1.2990  -21.7500    0.0000 C   0  0  0  0  0  3  0  0  0  0  0  0
   -2.5981  -22.5000    0.0000 C   0  0  0  0  0  3  0  0  0  0  0  0
   -2.5981  -24.0000    0.0000 O   0  0  0  0  0  0  0  0  0  0  0  0
   -3.8971  -24.7500    0.0000 C   0  0  0  0  0  0  0  0  0  0  0  0
   -3.8971  -26.2500    0.0000 O   0  0  0  0  0  0  0  0  0  0  0  0
   -5.1962  -27.0000    0.0000 O   0  0  0  0  0  0  0  0  0  0  0  0
   -5.1962  -28.5000    0.0000 C   0  0  0  0  0  0  0  0  0  0  0  0
   -6.4952  -29.2500    0.0000 C   0  0  0  0  0  3  0  0  0  0  0  0
   -6.4952  -30.7500    0.0000 O   0  0  0  0  0  0  0  0  0  0  0  0
   -7.7942  -31.5000    0.0000 O   0  0  0  0  0  0  0  0  0  0  0  0
   -7.7942  -33.0000    0.0000 C   0  0  0  0  0  0  0  0  0  0  0  0
   -6.4952  -33.7500    0.0000 O   0  0  0  0  0  0  0  0  0  0  0  0
   -9.0933  -33.7500    0.0000 C   0  0  0  0  0  3  0  0  0  0  0  0
   -9.0933  -35.2500    0.0000 O   0  0  0  0  0  0  0  0  0  0  0  0
  -10.3923  -36.0000    0.0000 O   0  0  0  0  0  0  0  0  0  0  0  0
  -10.3923  -37.5000    0.0000 O   0  0  0  0  0  0  0  0  0  0  0  0
  -11.6913  -38.2500    0.0000 O   0  0  0  0  0  0  0  0  0  0  0  0
  -11.6913  -39.7500    0.0000 C   0  0  0  0  0  0  0  0  0  0  0  0
  -12.9904  -40.5000    0.0000 C   0  0  0  0  0  0  0  0  0  0  0  0
  -12.9904  -42.0000    0.0000 O   0  0  0  0  0  0  0  0  0  0  0  0
  -14.2894  -42.7500    0.0000 C   0  0  0  0  0  0  0  0  0  0  0  0
  -14.2894  -44.2500    0.0000 O   0  0  0  0  0  0  0  0  0  0  0  0
  -15.5885  -45.0000    0.0000 C   0  0  0  0  0  0  0  0  0  0  0  0
  -15.5885  -46.5000    0.0000 O   0  0  0  0  0  0  0  0  0  0  0  0
  -16.8875  -44.2500    0.0000 O   0  0  0  0  0  0  0  0  0  0  0  0
  -18.1865  -45.0000    0.0000 C   0  0  0  0  0  0  0  0  0  0  0  0
  -19.4856  -44.2500    0.0000 O   0  0  0  0  0  0  0  0  0  0  0  0
  -20.7846  -45.0000    0.0000 O   0  0  0  0  0  0  0  0  0  0  0  0
  -22.0836  -44.2500    0.0000 O   0  0  0  0  0  0  0  0  0  0  0  0
  -23.3827  -45.0000    0.0000 C   0  0  0  0  0  0  0  0  0  0  0  0
  -24.6817  -44.2500    0.0000 C   0  0  0  0  0  0  0  0  0  0  0  0
  -25.9808  -45.0000    0.0000 O   0  0  0  0  0  0  0  0  0  0  0  0
  -24.6817  -42.7500    0.0000 O   0  0  0  0  0  0  0  0  0  0  0  0
  1  2  1  0
  2  3  1  0
  3  4  1  0
  4  5  1  0
  5  6  1  6
  6  7  1  0
  5  8  1  0
  8  9  1  1
  9 10  1  0
 10 11  1  0
 11 12  1  0
 11 13  1  0
 13 14  1  0
 14 15  1  0
 15 16  1  0
 16 17  1  0
 17 18  1  0
 18 19  1  0
 19 20  1  1
 19 21  1  0
 21 22  1  0
 22 23  1  0
 23 24  1  0
 24 25  1  0
 25 26  1  0
 26 27  1  1
 26 28  1  0
 28 29  1  0
 29 30  1  0
 30 31  1  0
 31 32  1  0
 32 33  1  0
 33 34  1  0
 34 35  1  6
 34 36  1  0
 36 37  1  0
 37 38  1  0
 38 39  1  6
 38 40  1  0
 40 41  1  0
 41 42  1  0
 42 43  1  0
 43 44  1  0
 44 45  1  0
  8 46  1  0
 46 47  1  0
 47 48  1  0
 48 49  1  0
 49 50  1  0
 50 51  1  0
 51 52  1  0
 52 53  1  0
 53 54  1  1
 53 55  1  0
 55 56  1  0
 56 57  1  0
 57 58  1  0
 58 59  1  6
 58 60  1  0
 60 61  1  0
 61 62  1  0
 62 63  1  0
 63 64  1  0
 64 65  1  0
 65 66  1  0
 66 67  1  0
 67 68  1  0
 68 69  1  0
 69 70  1  0
 70 71  1  0
 71 72  1  0
 72 73  1  0
 73 74  1  0
 74 75  1  0
 75 76  1  6
 75 77  1  0
 77 78  1  0
 78 79  1  0
 79 80  1  0
 80 81  1  0
 81 82  1  0
 82 83  1  0
 83 84  1  0
 84 85  1  0
 85 86  1  0
 86 87  1  0
 87 88  1  6
 87 89  1  0
 89 90  1  0
 90 91  1  0
 91 92  1  0
 92 93  1  0
 93 94  1  0
 94 95  1  0
 95 96  1  0
 95 97  1  0
M  RAD  8   3   2   7   3   9   2  24   2  31   2  33   2  36   2  41   2
M  RAD  8  43   2  46   2  47   2  49   2  51   2  63   2  65   2  66   2
M  RAD  2  72   2  77   2
M  END
$$$$
