
     RDKit          3D

 22 23  0  0  0  0  0  0  0  0999 V2000
   -1.4886    0.1387   -0.3016 N   0  0  0  0  0  0  0  0  0  0  0  0
   -1.4579    0.3674    1.1261 C   0  0  0  0  0  0  0  0  0  0  0  0
   -0.3074   -0.4345    1.7479 C   0  0  0  0  0  3  0  0  0  0  0  0
   -0.4492   -1.8211    1.2014 C   0  0  0  0  0  0  0  0  0  0  0  0
   -0.0760   -2.3087    0.0221 C   0  0  0  0  0  0  0  0  0  0  0  0
    1.0376   -3.1449    0.0264 O   0  0  0  0  0  0  0  0  0  0  0  0
    2.2708   -2.5505   -0.3362 C   0  0  0  0  0  0  0  0  0  0  0  0
    2.5695   -1.4053    0.4819 N   0  0  0  0  0  3  0  0  0  0  0  0
    3.5821   -0.7601    0.2159 N   0  0  0  0  0  0  0  0  0  0  0  0
    4.0394    0.6510    1.1471 S   0  0  0  0  0  0  0  0  0  0  0  0
    3.2597    2.1329    0.4955 C   0  0  0  0  0  0  0  0  0  0  0  0
    1.9845    2.2565    0.7061 C   0  0  0  0  0  0  0  0  0  0  0  0
    1.2282    3.0779    0.1217 C   0  0  0  0  0  0  0  0  0  0  0  0
    0.4645    2.8677   -0.8319 N   0  0  0  0  0  3  0  0  0  0  0  0
   -0.1176    1.6823   -1.1708 O   0  0  0  0  0  0  0  0  0  0  0  0
   -1.4516    1.3966   -0.9169 N   0  0  0  0  0  3  0  0  0  0  0  0
   -2.0770    2.6973    0.2972 Br  0  0  0  0  0  0  0  0  0  0  0  0
   -0.6961   -2.0796   -1.3279 C   0  0  0  0  0  0  0  0  0  0  0  0
   -2.1926   -1.9153   -1.2226 C   0  0  0  0  0  0  0  0  0  0  0  0
   -2.5649   -0.6034   -0.7290 N   0  0  0  0  0  0  0  0  0  0  0  0
   -3.5934   -0.7459    0.2867 C   0  0  0  0  0  0  0  0  0  0  0  0
   -3.9641    0.5012    0.7726 O   0  0  0  0  0  1  0  0  0  0  0  0
  1  2  1  0
  2  3  1  0
  3  4  1  0
  4  5  2  3
  5  6  1  0
  6  7  1  0
  7  8  1  0
  8  9  2  3
  9 10  1  0
 10 11  1  0
 11 12  2  0
 12 13  2  0
 13 14  2  0
 14 15  1  0
 15 16  1  0
 16 17  1  0
  5 18  1  0
 18 19  1  0
 19 20  1  0
 20 21  1  0
 21 22  1  0
 16  1  1  0
 20  1  1  0
M  CHG  4   8   1  14   1  16   1  22  -1
M  RAD  4   3   2   8   2  14   2  16   2
M  END
$$$$
