
     RDKit          3D

 35 36  0  0  0  0  0  0  0  0999 V2000
    0.7680   -2.8225    0.5601 C   0  0  0  0  0  0  0  0  0  0  0  0
    0.4166   -3.9258    1.3454 O   0  0  0  0  0  0  0  0  0  0  0  0
   -0.6315   -4.7598    1.0003 C   0  0  0  0  0  0  0  0  0  0  0  0
   -0.6809   -5.9944    1.3638 O   0  0  0  0  0  0  0  0  0  0  0  0
   -1.7270   -4.2774    0.2129 C   0  0  0  0  0  0  0  0  0  0  0  0
   -2.3783   -3.1478    0.2840 C   0  0  0  0  0  0  0  0  0  0  0  0
   -1.9930   -2.1942    1.2887 C   0  0  0  0  0  0  0  0  0  0  0  0
   -2.7380   -1.1495    1.5493 C   0  0  0  0  0  0  0  0  0  0  0  0
   -4.0060   -0.9977    0.7431 C   0  0  0  0  0  0  0  0  0  0  0  0
   -5.0766   -1.8957    1.2721 C   0  0  0  0  0  0  0  0  0  0  0  0
   -6.1928   -1.7272    0.5118 F   0  0  0  0  0  0  0  0  0  0  0  0
   -4.5227    0.7210    1.1052 S   0  0  0  0  0  0  0  0  0  0  0  0
   -3.6746    1.8944    0.3094 C   0  0  0  0  0  0  0  0  0  0  0  0
   -4.1473    3.2246    0.6489 N   0  0  0  0  0  0  0  0  0  0  0  0
   -3.8206    4.2950   -0.2879 C   0  0  0  0  0  0  0  0  0  0  0  0
   -2.6476    5.0895    0.1279 C   0  0  0  0  0  0  0  0  0  0  0  0
   -1.3904    4.6737    0.1163 C   0  0  0  0  0  0  0  0  0  0  0  0
   -0.2955    5.5376    0.5561 C   0  0  0  0  0  0  0  0  0  0  0  0
    0.8703    5.0938    0.5222 O   0  0  0  0  0  0  0  0  0  0  0  0
   -1.0029    3.0255   -0.4460 S   0  0  0  0  0  2  0  0  0  0  0  0
    0.6167    2.5201    0.2511 C   0  0  0  0  0  0  0  0  0  0  0  0
    1.6499    2.5242   -0.8710 C   0  0  0  0  0  0  0  0  0  0  0  0
    2.3990    1.2070   -0.8047 C   0  0  0  0  0  0  0  0  0  0  0  0
    2.7382    1.3084    0.9532 N   0  0  0  0  0  3  0  0  0  0  0  0
    4.1212    1.5987    0.8493 C   0  0  0  0  0  0  0  0  0  0  0  0
    4.9834    0.4716    0.3110 C   0  0  0  0  0  0  0  0  0  0  0  0
    4.4003    0.0700   -1.3458 S   0  0  0  0  0  0  0  0  0  0  0  0
    4.6381   -1.4329   -1.9659 C   0  0  0  0  0  0  0  0  0  0  0  0
    5.3379   -2.4171   -1.1303 C   0  0  0  0  0  0  0  0  0  0  0  0
    5.9109   -3.2074   -0.4322 C   0  0  0  0  0  0  0  0  0  0  0  0
    1.5609    0.0942   -0.9488 N   0  0  0  0  0  0  0  0  0  0  0  0
    1.2068   -1.1955   -1.0566 C   0  0  0  0  0  0  0  0  0  0  0  0
    1.2956   -1.7619    0.8278 C   0  0  0  0  0  0  0  0  0  0  0  0
    1.8011   -0.6628    0.8875 C   0  0  0  0  0  0  0  0  0  0  0  0
    2.2109    0.2202    0.9187 C   0  0  0  0  0  0  0  0  0  0  0  0
  1  2  1  0
  2  3  1  0
  3  4  2  0
  3  5  1  0
  5  6  2  3
  6  7  1  0
  7  8  2  3
  8  9  1  0
  9 10  1  0
 10 11  1  0
  9 12  1  0
 12 13  2  3
 13 14  1  0
 14 15  1  0
 15 16  1  0
 16 17  2  3
 17 18  1  0
 18 19  2  0
 17 20  1  0
 20 21  1  0
 21 22  1  0
 22 23  1  0
 23 24  1  0
 24 25  1  0
 25 26  1  0
 26 27  1  0
 27 28  2  3
 28 29  1  0
 29 30  3  0
 23 31  1  0
 31 32  2  0
 32 33  1  0
 33 34  1  0
 34 35  3  0
  1 33  2  3
 35 24  1  0
M  CHG  2  20   1  24   1
M  RAD  2  20   2  24   2
M  END
$$$$
