
     RDKit          3D

 29 29  0  0  0  0  0  0  0  0999 V2000
   -8.1451    0.4257   -0.6174 C   0  0  0  0  0  0  0  0  0  0  0  0
   -7.2176    0.7178    0.5287 C   0  0  0  0  0  0  0  0  0  0  0  0
   -7.1711   -0.4240    1.5117 C   0  0  0  0  0  0  0  0  0  0  0  0
   -5.8212    1.0611    0.0693 C   0  0  0  0  0  0  0  0  0  0  0  0
   -5.2406   -0.0887   -0.7071 C   0  0  0  0  0  0  0  0  0  0  0  0
   -3.8383    0.2987   -1.1492 C   0  0  0  0  0  0  0  0  0  0  0  0
   -2.9725    0.5907    0.0372 C   0  0  1  0  0  0  0  0  0  0  0  0
   -3.4839    1.7185    0.8932 C   0  0  0  0  0  0  0  0  0  0  0  0
   -2.6418   -0.6216    0.8538 C   0  0  0  0  0  3  0  0  0  0  0  0
   -1.9044   -1.5934   -0.0529 C   0  0  0  0  0  0  0  0  0  0  0  0
   -0.6526   -0.9055   -0.5451 C   0  0  0  0  0  0  0  0  0  0  0  0
    0.2391   -0.5128    0.5883 C   0  0  2  0  0  0  0  0  0  0  0  0
   -0.2150   -1.0366    1.9185 C   0  0  0  0  0  0  0  0  0  0  0  0
    0.5188    0.9751    0.6057 C   0  0  0  0  0  0  0  0  0  0  0  0
    1.5937    1.2586    1.6349 C   0  0  0  0  0  0  0  0  0  0  0  0
    2.2516   -0.0150    2.1041 C   0  0  0  0  0  2  0  0  0  0  0  0
    2.6492    2.1940    1.1438 C   0  0  0  0  0  0  0  0  0  0  0  0
    3.4300    1.6719   -0.0187 C   0  0  0  0  0  0  0  0  0  0  0  0
    4.9008    1.5203    0.2551 C   0  0  0  0  0  0  0  0  0  0  0  0
    5.2917    2.1529    1.4217 O   0  0  0  0  0  0  0  0  0  0  0  0
    5.6549    2.1477   -0.9170 C   0  0  0  0  0  0  0  0  0  0  0  0
    5.2925    0.0578    0.3163 C   0  0  0  0  0  0  0  0  0  0  0  0
    4.8712   -0.5885   -0.8454 O   0  0  0  0  0  0  0  0  0  0  0  0
    3.5689   -0.8579   -0.7798 O   0  0  0  0  0  0  0  0  0  0  0  0
    3.3992   -2.1747   -0.3529 C   0  0  0  0  0  0  0  0  0  0  0  0
    2.5016   -2.9663   -1.2798 C   0  0  0  0  0  0  0  0  0  0  0  0
    2.1000   -2.1170   -2.4681 C   0  0  0  0  0  0  0  0  0  0  0  0
    1.0354   -1.1151   -2.0864 C   0  0  0  0  0  0  0  0  0  0  0  0
    0.0054   -1.7734   -1.3999 O   0  0  0  0  0  0  0  0  0  0  0  0
  1  2  1  0
  2  3  1  0
  2  4  1  0
  4  5  1  0
  5  6  1  0
  6  7  1  0
  7  8  1  1
  7  9  1  0
  9 10  1  0
 10 11  1  0
 11 12  1  0
 12 13  1  1
 12 14  1  0
 14 15  1  0
 15 16  1  0
 15 17  1  0
 17 18  1  0
 18 19  1  0
 19 20  1  0
 19 21  1  0
 19 22  1  0
 22 23  1  0
 23 24  1  0
 24 25  1  0
 25 26  1  0
 26 27  1  0
 27 28  1  0
 28 29  1  0
 29 11  1  0
M  RAD  2   9   2  16   3
M  END
$$$$
