
     RDKit          3D

 78 78  0  0  0  0  0  0  0  0999 V2000
    4.0917   -0.5637   -0.5561 C   0  0  0  0  0  0  0  0  0  0  0  0
    4.2874   -1.0479   -1.8658 O   0  0  0  0  0  0  0  0  0  0  0  0
    3.6671   -2.2521   -2.0536 C   0  0  0  0  0  3  0  0  0  0  0  0
    2.8853   -2.6513   -0.9760 O   0  0  0  0  0  0  0  0  0  0  0  0
    1.5451   -2.4473   -1.3271 C   0  0  2  0  0  0  0  0  0  0  0  0
    1.2747   -2.9728   -2.7171 C   0  0  0  0  0  0  0  0  0  0  0  0
    1.3316   -0.9358   -1.3456 C   0  0  0  0  0  3  0  0  0  0  0  0
    0.3521   -0.6786   -0.1715 C   0  0  1  0  0  0  0  0  0  0  0  0
   -1.0749   -0.8065   -0.8207 C   0  0  0  0  0  3  0  0  0  0  0  0
   -1.0547    0.4699   -1.6420 C   0  0  0  0  0  0  0  0  0  0  0  0
   -2.2111    1.3203   -1.3692 C   0  0  2  0  0  0  0  0  0  0  0  0
   -1.8753    2.7869   -1.7042 C   0  0  0  0  0  0  0  0  0  0  0  0
   -1.1513    3.2575   -0.5475 O   0  0  0  0  0  1  0  0  0  0  0  0
   -2.8562    1.1812   -0.0358 C   0  0  0  0  0  0  0  0  0  0  0  0
   -3.0419   -0.2322    0.1787 O   0  0  0  0  0  0  0  0  0  0  0  0
   -3.7054   -0.4287    1.3407 C   0  0  1  0  0  0  0  0  0  0  0  0
   -3.2376    0.3370    2.5134 C   0  0  0  0  0  2  0  0  0  0  0  0
   -5.2503   -0.2283    1.0838 C   0  0  2  0  0  0  0  0  0  0  0  0
   -5.4424   -1.1107   -0.0106 O   0  0  0  0  0  0  0  0  0  0  0  0
   -6.3301   -1.9981    0.2215 N   0  0  0  0  0  3  0  0  0  0  0  0
   -6.7114   -2.0239    1.4906 O   0  0  0  0  0  0  0  0  0  0  0  0
   -7.3853   -2.2396   -0.6918 C   0  0  2  0  0  0  0  0  0  0  0  0
   -7.5949   -3.5672   -1.0218 O   0  0  0  0  0  0  0  0  0  0  0  0
   -7.1526   -1.5130   -1.9506 N   0  0  0  0  0  1  0  0  0  0  0  0
   -5.3394    1.0862    0.6423 O   0  0  0  0  0  0  0  0  0  0  0  0
   -6.4849    1.3102   -0.1409 C   0  0  2  0  0  0  0  0  0  0  0  0
   -6.0665    1.9678   -1.3813 N   0  0  0  0  0  2  0  0  0  0  0  0
   -7.2172    2.0372   -2.1324 O   0  0  0  0  0  0  0  0  0  0  0  0
   -7.7794    0.7822   -1.8985 C   0  0  0  0  0  3  0  0  0  0  0  0
   -8.7629    0.8576   -0.8488 C   0  0  0  0  0  3  0  0  0  0  0  0
   -9.1318   -0.3385   -0.3269 O   0  0  0  0  0  0  0  0  0  0  0  0
   -7.3130    2.3495    0.6700 C   0  0  0  0  0  3  0  0  0  0  0  0
   -7.3812    1.7935    2.0503 C   0  0  0  0  0  0  0  0  0  0  0  0
   -7.7158    0.5423    2.3357 O   0  0  0  0  0  0  0  0  0  0  0  0
   -9.0048    0.0735    2.0109 C   0  0  1  0  0  0  0  0  0  0  0  0
   -9.7289    1.4494    1.7385 C   0  0  0  0  0  2  0  0  0  0  0  0
  -10.8577    1.2621    1.0432 O   0  0  0  0  0  0  0  0  0  0  0  0
  -11.2541    2.2521    0.2257 C   0  0  2  0  0  0  0  0  0  0  0  0
  -12.5441    2.7056    0.5826 O   0  0  0  0  0  0  0  0  0  0  0  0
  -11.4693    1.8570   -1.2236 C   0  0  0  0  0  0  0  0  0  0  0  0
  -10.2281    1.9206   -1.9675 C   0  0  0  0  0  0  0  0  0  0  0  0
   -9.1721    1.2039   -1.7229 O   0  0  0  0  0  0  0  0  0  0  0  0
   -9.0270   -0.0424   -2.1834 C   0  0  0  0  0  2  0  0  0  0  0  0
   -9.1281   -0.5769    0.7563 O   0  0  0  0  0  0  0  0  0  0  0  0
  -10.2928   -1.3337    0.8135 C   0  0  0  0  0  3  0  0  0  0  0  0
  -11.1343   -1.1296   -0.4019 C   0  0  0  0  0  0  0  0  0  0  0  0
  -12.5753   -1.3784   -0.3075 C   0  0  0  0  0  0  0  0  0  0  0  0
  -13.1698   -3.3964   -0.2851 I   0  0  0  0  0  0  0  0  0  0  0  0
    0.5307   -1.3889    0.9280 O   0  0  0  0  0  0  0  0  0  0  0  0
    1.0823   -0.4894    2.4892 C   0  0  2  0  0  0  0  0  0  0  0  0
    1.3312    0.7440    1.5260 O   0  0  0  0  0  0  0  0  0  0  0  0
    2.0965   -0.4266    2.3888 N   0  0  0  0  0  4  0  0  0  0  0  0
    3.4102   -0.3316    2.2398 C   0  0  0  0  0  0  0  0  0  0  0  0
    4.3939   -0.2471    2.1317 O   0  0  0  0  0  0  0  0  0  0  0  0
    4.4397    1.2981    0.9991 C   0  0  0  0  0  0  0  0  0  0  0  0
    4.4867    0.9355   -0.5001 C   0  0  1  0  0  0  0  0  0  0  0  0
    5.9870    0.8987   -0.8585 C   0  0  0  0  0  0  0  0  0  0  0  0
    6.4671   -0.0124   -0.0641 O   0  0  0  0  0  0  0  0  0  0  0  0
    7.4701   -0.1646    0.4983 O   0  0  0  0  0  0  0  0  0  0  0  0
    8.4800   -0.8006    0.1628 O   0  0  0  0  0  0  0  0  0  0  0  0
    9.6714   -0.2966    0.4757 N   0  0  0  0  0  3  0  0  0  0  0  0
    9.8457    1.1038    0.6069 C   0  0  0  0  0  0  0  0  0  0  0  0
    8.6201    1.7328    1.0535 O   0  0  0  0  0  0  0  0  0  0  0  0
   10.2894    1.7982   -0.6482 C   0  0  0  0  0  0  0  0  0  0  0  0
   11.3190    2.8446   -0.2186 C   0  0  0  0  0  0  0  0  0  0  0  0
   12.6418    2.1729   -0.3880 C   0  0  0  0  0  0  0  0  0  0  0  0
   12.8206    0.9226    0.3189 C   0  0  0  0  0  2  0  0  0  0  0  0
   10.4018   -1.0383    1.3502 N   0  0  0  0  0  2  0  0  0  0  0  0
   11.3194   -1.7431    0.7102 O   0  0  0  0  0  0  0  0  0  0  0  0
   11.9492   -0.9445   -0.2241 C   0  0  0  0  0  0  0  0  0  0  0  0
   13.3949   -1.2447   -0.3081 C   0  0  2  0  0  0  0  0  0  0  0  0
   14.1148   -0.3456   -1.1694 N   0  0  0  0  0  2  0  0  0  0  0  0
   14.7462    1.0619   -0.2475 P   0  0  0  0  0  0  0  0  0  0  0  0
   13.5472    2.2816    0.2526 C   0  0  0  0  0  3  0  0  0  0  0  0
   13.6882    3.5698   -0.0179 O   0  0  0  0  0  0  0  0  0  0  0  0
   13.6568   -2.6776   -0.5375 C   0  0  0  0  0  3  0  0  0  0  0  0
   13.4027   -3.4494    0.7109 C   0  0  0  0  0  0  0  0  0  0  0  0
   13.8147   -4.6735    0.7549 N   0  0  0  0  0  2  0  0  0  0  0  0
  1  2  1  0
  2  3  1  0
  3  4  1  0
  4  5  1  0
  5  6  1  6
  5  7  1  0
  7  8  1  0
  8  9  1  6
  9 10  1  0
 11 10  1  1
 11 12  1  0
 12 13  1  0
 11 14  1  0
 14 15  1  0
 15 16  1  0
 16 17  1  1
 16 18  1  0
 18 19  1  6
 19 20  1  0
 20 21  1  0
 20 22  1  0
 22 23  1  0
 22 24  1  6
 18 25  1  0
 25 26  1  0
 26 27  1  0
 27 28  1  0
 28 29  1  0
 29 30  1  0
 30 31  1  0
 26 32  1  1
 32 33  1  0
 33 34  1  0
 34 35  1  0
 35 36  1  6
 36 37  1  0
 37 38  1  0
 38 39  1  1
 38 40  1  0
 40 41  1  0
 41 42  1  0
 42 43  1  0
 35 44  1  0
 44 45  1  0
 45 46  1  0
 46 47  1  0
 47 48  1  0
  8 49  1  0
 49 50  1  0
 50 51  1  6
 50 52  1  0
 52 53  3  0
 53 54  1  0
 54 55  1  0
 55 56  1  0
 56 57  1  1
 57 58  1  0
 58 59  1  0
 59 60  1  0
 60 61  1  0
 61 62  1  0
 62 63  1  0
 62 64  1  0
 64 65  1  0
 65 66  1  0
 66 67  1  0
 61 68  1  0
 68 69  1  0
 69 70  1  0
 71 70  1  6
 71 72  1  0
 72 73  1  0
 73 74  1  0
 74 75  1  0
 71 76  1  0
 76 77  1  0
 77 78  2  0
 56  1  1  0
M  RAD  8   3   2   7   2   9   2  17   3  20   2  24   2  27   3  29   2
M  RAD  8  30   2  32   2  36   3  43   3  45   2  61   2  67   3  68   3
M  CHG  8  13  -1  20   1  24   1  27   1  52   1  61   1  68   1  72   1
M  CHG  1  78   1
M  RAD  4  72   3  74   2  76   2  78   3
M  END
$$$$
