
     RDKit          3D

 11 11  0  0  0  0  0  0  0  0999 V2000
    3.7632    0.0346    0.2565 C   0  0  0  0  0  0  0  0  0  0  0  0
    2.3078   -0.2816    0.3703 C   0  0  0  0  0  0  0  0  0  0  0  0
    1.9061   -1.2810    1.0433 O   0  0  0  0  0  0  0  0  0  0  0  0
    1.2983    0.4965   -0.2523 N   0  0  0  0  0  0  0  0  0  0  0  0
   -0.0773    0.1551   -0.1149 C   0  0  0  0  0  0  0  0  0  0  0  0
   -0.4855   -0.9376    0.6233 C   0  0  0  0  0  0  0  0  0  0  0  0
   -1.8174   -1.2650    0.7542 C   0  0  0  0  0  0  0  0  0  0  0  0
   -2.7749   -0.5012    0.1455 C   0  0  0  0  0  0  0  0  0  0  0  0
   -2.3657    0.5957   -0.5956 C   0  0  0  0  0  0  0  0  0  0  0  0
   -1.0344    0.9342   -0.7343 C   0  0  0  0  0  0  0  0  0  0  0  0
   -0.7202    2.0502   -1.4959 O   0  0  0  0  0  0  0  0  0  0  0  0
  1  2  1  0
  2  3  2  0
  2  4  1  0
  4  5  1  0
  5  6  2  0
  6  7  1  0
  7  8  2  0
  8  9  1  0
  9 10  2  0
 10 11  1  0
 10  5  1  0
M  END
$$$$
