
     RDKit          3D

 13 12  0  0  0  0  0  0  0  0999 V2000
   -3.3031   -0.8671    1.6034 C   0  0  0  0  0  0  0  0  0  0  0  0
   -3.9758   -0.0162    0.6061 C   0  0  0  0  0  0  0  0  0  0  0  0
   -3.3926    1.2835    0.2844 C   0  0  0  0  0  0  0  0  0  0  0  0
   -2.0781    1.3958   -0.2949 C   0  0  0  0  0  0  0  0  0  0  0  0
   -0.8646    0.9012    0.3645 C   0  0  0  0  0  0  0  0  0  0  0  0
   -0.7292   -0.5388    0.6503 C   0  0  0  0  0  0  0  0  0  0  0  0
   -0.7757   -1.4123   -0.5861 C   0  0  0  0  0  0  0  0  0  0  0  0
    0.3703   -1.0190   -1.5215 C   0  0  0  0  0  0  0  0  0  0  0  0
    1.7080   -1.2005   -0.8454 C   0  0  0  0  0  0  0  0  0  0  0  0
    1.8357   -0.3790    0.3688 C   0  0  0  0  0  0  0  0  0  0  0  0
    2.7839    0.5228    0.4675 C   0  0  0  0  0  0  0  0  0  0  0  0
    3.7375    0.7447   -0.6086 C   0  0  0  0  0  0  0  0  0  0  0  0
    4.6834    1.6570   -0.4885 C   0  0  0  0  0  0  0  0  0  0  0  0
  1  2  1  0
  2  3  1  0
  3  4  1  0
  4  5  1  0
  5  6  1  0
  6  7  1  0
  7  8  1  0
  8  9  1  0
  9 10  1  0
 10 11  2  3
 11 12  1  0
 12 13  2  0
M  END
$$$$
