
     RDKit          3D

  6  5  0  0  0  0  0  0  0  0999 V2000
    2.2953   -0.0491    0.4478 C   0  0  0  0  0  0  0  0  0  0  0  0
    1.2271   -0.6281   -0.3155 O   0  0  0  0  0  0  0  0  0  0  0  0
    0.0025    0.0543   -0.1922 C   0  0  0  0  0  0  0  0  0  0  0  0
   -0.0314    1.3396   -0.4242 C   0  0  0  0  0  0  0  0  0  0  0  0
   -1.1758   -0.6882    0.1867 C   0  0  0  0  0  3  0  0  0  0  0  0
   -2.3178   -0.0284    0.2974 C   0  0  0  0  0  0  0  0  0  0  0  0
  1  2  1  0
  2  3  1  0
  3  4  2  0
  3  5  1  0
  5  6  2  0
M  RAD  1   5   2
M  END
$$$$
