
     RDKit          3D

 21 20  0  0  0  0  0  0  0  0999 V2000
    4.0106    1.8676    0.8035 C   0  0  0  0  0  0  0  0  0  0  0  0
    4.4809    0.8130    1.7312 C   0  0  0  0  0  0  0  0  0  0  0  0
    5.9220    0.9342    2.1226 C   0  0  0  0  0  0  0  0  0  0  0  0
    4.1629   -0.5985    1.4005 C   0  0  0  0  0  0  0  0  0  0  0  0
    4.6724   -1.1052    0.1090 C   0  0  0  0  0  0  0  0  0  0  0  0
    4.1401   -0.4937   -1.1080 C   0  0  0  0  0  0  0  0  0  0  0  0
    2.7270   -0.6592   -1.4670 C   0  0  1  0  0  0  0  0  0  0  0  0
    2.3670   -2.1372   -1.6737 C   0  0  0  0  0  0  0  0  0  0  0  0
    1.6720    0.0715   -0.7585 C   0  0  0  0  0  3  0  0  0  0  0  0
    1.4379   -0.2429    0.6749 C   0  0  0  0  0  0  0  0  0  0  0  0
    0.3119    0.6280    1.1868 C   0  0  0  0  0  3  0  0  0  0  0  0
   -0.9131    0.3089    0.3704 C   0  0  0  0  0  0  0  0  0  0  0  0
   -1.1944   -1.1723    0.5743 C   0  0  0  0  0  0  0  0  0  0  0  0
   -0.6082    0.6203   -1.0821 C   0  0  0  0  0  0  0  0  0  0  0  0
   -2.0817    1.1209    0.7444 C   0  0  0  0  0  0  0  0  0  0  0  0
   -3.2498    0.6712    0.5155 N   0  0  0  0  0  3  0  0  0  0  0  0
   -3.4105   -0.6116   -0.0995 C   0  0  0  0  0  0  0  0  0  0  0  0
   -4.8746   -0.8615   -0.3059 C   0  0  0  0  0  0  0  0  0  0  0  0
   -5.3816    0.1590   -1.1445 O   0  0  0  0  0  0  0  0  0  0  0  0
   -6.7262    0.1964   -1.5190 C   0  0  0  0  0  0  0  0  0  0  0  0
   -7.4644   -0.7207   -1.0748 O   0  0  0  0  0  0  0  0  0  0  0  0
  1  2  1  0
  2  3  1  0
  2  4  1  0
  4  5  1  0
  5  6  1  0
  6  7  1  0
  7  8  1  1
  7  9  1  0
  9 10  1  0
 10 11  1  0
 11 12  1  0
 12 13  1  0
 12 14  1  0
 12 15  1  0
 15 16  2  3
 16 17  1  0
 17 18  1  0
 18 19  1  0
 19 20  1  0
 20 21  2  0
M  CHG  1  16   1
M  RAD  3   9   2  11   2  16   2
M  END
$$$$
