
     RDKit          2D

 81 82  0  0  0  0  0  0  0  0999 V2000
    0.8637  -13.7886    0.0000 C   0  0  0  0  0  0  0  0  0  0  0  0
    2.0007  -12.8102    0.0000 C   0  0  0  0  0  0  0  0  0  0  0  0
    3.4165  -13.3056    0.0000 C   0  0  0  0  0  0  0  0  0  0  0  0
    1.7218  -11.3363    0.0000 C   0  0  0  0  0  0  0  0  0  0  0  0
    2.8588  -10.3579    0.0000 C   0  0  0  0  0  0  0  0  0  0  0  0
    2.5799   -8.8840    0.0000 C   0  0  0  0  0  0  0  0  0  0  0  0
    3.7169   -7.9056    0.0000 C   0  0  0  0  0  0  0  0  0  0  0  0
    5.1327   -8.4010    0.0000 C   0  0  0  0  0  0  0  0  0  0  0  0
    3.4380   -6.4317    0.0000 C   0  0  0  0  0  3  0  0  0  0  0  0
    2.0222   -5.9363    0.0000 C   0  0  0  0  0  0  0  0  0  0  0  0
    1.7433   -4.4625    0.0000 C   0  0  0  0  0  0  0  0  0  0  0  0
    0.3275   -3.9671    0.0000 C   0  0  0  0  0  0  0  0  0  0  0  0
    0.4954   -2.4765    0.0000 C   0  0  0  0  0  0  0  0  0  0  0  0
   -0.4706   -5.2371    0.0000 C   0  0  0  0  0  3  0  0  0  0  0  0
   -1.7407   -6.0352    0.0000 C   0  0  0  0  0  0  0  0  0  0  0  0
   -3.2312   -6.2031    0.0000 C   0  0  0  0  0  0  0  0  0  0  0  0
   -3.3992   -7.6937    0.0000 N   0  0  0  0  0  1  0  0  0  0  0  0
   -4.6471   -5.7077    0.0000 C   0  0  0  0  0  0  0  0  0  0  0  0
   -5.7077   -4.6471    0.0000 C   0  0  0  0  0  0  0  0  0  0  0  0
   -6.2031   -3.2312    0.0000 C   0  0  0  0  0  0  0  0  0  0  0  0
   -7.6937   -3.3992    0.0000 C   0  0  0  0  0  0  0  0  0  0  0  0
   -6.0352   -1.7407    0.0000 O   0  0  0  0  0  0  0  0  0  0  0  0
   -5.2371   -0.4706    0.0000 C   0  0  0  0  0  0  0  0  0  0  0  0
   -3.9671    0.3275    0.0000 C   0  0  0  0  0  0  0  0  0  0  0  0
   -4.4625    1.7433    0.0000 O   0  0  0  0  0  0  0  0  0  0  0  0
   -2.4765    0.4954    0.0000 C   0  0  0  0  0  0  0  0  0  0  0  0
   -1.0607    0.0000    0.0000 S   0  0  0  0  0  0  0  0  0  0  0  0
   -0.0000   -1.0607    0.0000 C   0  0  0  0  0  0  0  0  0  0  0  0
    1.0607    0.0000    0.0000 C   0  0  0  0  0  0  0  0  0  0  0  0
    2.5607    0.0000    0.0000 C   0  0  0  0  0  2  0  0  0  0  0  0
    0.0000    1.0607    0.0000 C   0  0  0  0  0  0  0  0  0  0  0  0
    0.0000    2.5607    0.0000 S   0  0  0  0  0  0  0  0  0  0  0  0
    1.2990    3.3107    0.0000 C   0  0  0  0  0  0  0  0  0  0  0  0
    1.2990    4.8107    0.0000 C   0  0  0  0  0  0  0  0  0  0  0  0
    2.5981    5.5607    0.0000 C   0  0  0  0  0  0  0  0  0  0  0  0
    2.5981    7.0607    0.0000 C   0  0  0  0  0  2  0  0  0  0  0  0
    3.8971    4.8107    0.0000 C   0  0  0  0  0  0  0  0  0  0  0  0
    5.1962    5.5607    0.0000 C   0  0  0  0  0  0  0  0  0  0  0  0
    6.4952    4.8107    0.0000 C   0  0  0  0  0  0  0  0  0  0  0  0
    7.7942    5.5607    0.0000 C   0  0  0  0  0  0  0  0  0  0  0  0
    6.4952    3.3107    0.0000 C   0  0  0  0  0  0  0  0  0  0  0  0
    7.7942    2.5607    0.0000 C   0  0  0  0  0  0  0  0  0  0  0  0
    7.7942    1.0607    0.0000 C   0  0  0  0  0  0  0  0  0  0  0  0
    6.4952    0.3107    0.0000 O   0  0  0  0  0  0  0  0  0  0  0  0
    9.0933    0.3107    0.0000 C   0  0  0  0  0  0  0  0  0  0  0  0
    9.0933   -1.1893    0.0000 C   0  0  0  0  0  3  0  0  0  0  0  0
   10.3923   -1.9393    0.0000 C   0  0  0  0  0  0  0  0  0  0  0  0
   10.3923   -3.4393    0.0000 C   0  0  0  0  0  2  0  0  0  0  0  0
   11.6913   -1.1893    0.0000 C   0  0  0  0  0  0  0  0  0  0  0  0
   12.9904   -1.9393    0.0000 C   0  0  0  0  0  3  0  0  0  0  0  0
   14.2894   -1.1893    0.0000 C   0  0  0  0  0  0  0  0  0  0  0  0
   15.5885   -1.9393    0.0000 C   0  0  0  0  0  0  0  0  0  0  0  0
   16.8875   -1.1893    0.0000 C   0  0  0  0  0  0  0  0  0  0  0  0
   18.1865   -1.9393    0.0000 C   0  0  0  0  0  0  0  0  0  0  0  0
   19.4856   -1.1893    0.0000 C   0  0  0  0  0  2  0  0  0  0  0  0
   18.1865   -3.4393    0.0000 C   0  0  0  0  0  0  0  0  0  0  0  0
   19.4856   -4.1893    0.0000 C   0  0  0  0  0  3  0  0  0  0  0  0
   19.4856   -5.6893    0.0000 C   0  0  0  0  0  3  0  0  0  0  0  0
   20.7846   -6.4393    0.0000 C   0  0  0  0  0  0  0  0  0  0  0  0
   18.1865   -6.4393    0.0000 C   0  0  0  0  0  0  0  0  0  0  0  0
   18.1865   -7.9393    0.0000 C   0  0  0  0  0  0  0  0  0  0  0  0
   16.8875   -8.6893    0.0000 C   0  0  0  0  0  0  0  0  0  0  0  0
   16.8875  -10.1893    0.0000 C   0  0  0  0  0  0  0  0  0  0  0  0
   15.5885  -10.9393    0.0000 C   0  0  0  0  0  0  0  0  0  0  0  0
   15.5885  -12.4393    0.0000 C   0  0  0  0  0  0  0  0  0  0  0  0
   14.2894  -13.1893    0.0000 C   0  0  0  0  0  0  0  0  0  0  0  0
   14.2894  -14.6893    0.0000 C   0  0  0  0  0  0  0  0  0  0  0  0
   12.9904  -15.4393    0.0000 C   0  0  0  0  0  2  0  0  0  0  0  0
   15.5885  -15.4393    0.0000 C   0  0  0  0  0  0  0  0  0  0  0  0
   15.5885  -16.9393    0.0000 C   0  0  0  0  0  0  0  0  0  0  0  0
   16.8875  -17.6893    0.0000 C   0  0  0  0  0  0  0  0  0  0  0  0
   16.8875  -19.1893    0.0000 C   0  0  0  0  0  0  0  0  0  0  0  0
   18.1865  -16.9393    0.0000 C   0  0  0  0  0  3  0  0  0  0  0  0
   19.4856  -17.6893    0.0000 C   0  0  0  0  0  0  0  0  0  0  0  0
   20.7846  -16.9393    0.0000 C   0  0  0  0  0  0  0  0  0  0  0  0
   22.0836  -17.6893    0.0000 C   0  0  0  0  0  0  0  0  0  0  0  0
   23.3827  -16.9393    0.0000 C   0  0  0  0  0  0  0  0  0  0  0  0
   22.0836  -19.1893    0.0000 C   0  0  0  0  0  3  0  0  0  0  0  0
   23.3827  -19.9393    0.0000 C   0  0  0  0  0  0  0  0  0  0  0  0
   23.3827  -21.4393    0.0000 C   0  0  0  0  0  0  0  0  0  0  0  0
   24.6817  -19.1893    0.0000 C   0  0  0  0  0  0  0  0  0  0  0  0
  1  2  1  0
  2  3  1  0
  2  4  1  0
  4  5  1  0
  5  6  1  0
  6  7  1  0
  7  8  1  6
  7  9  1  0
  9 10  1  0
 10 11  1  0
 12 11  1  6
 12 13  1  0
 12 14  1  0
 14 15  1  0
 15 16  1  0
 16 17  1  0
 16 18  1  0
 18 19  1  0
 19 20  1  0
 20 21  1  0
 20 22  1  0
 22 23  1  0
 23 24  1  0
 24 25  1  0
 24 26  1  0
 26 27  1  0
 27 28  1  0
 28 29  1  0
 29 30  1  6
 29 31  1  0
 31 32  1  0
 32 33  1  0
 33 34  1  0
 34 35  1  0
 35 36  1  1
 35 37  1  0
 37 38  1  0
 38 39  1  0
 39 40  1  1
 39 41  1  0
 41 42  1  0
 42 43  1  0
 43 44  1  0
 43 45  1  0
 45 46  1  0
 46 47  1  0
 47 48  1  6
 47 49  1  0
 49 50  1  0
 50 51  1  0
 51 52  1  0
 52 53  1  0
 53 54  1  0
 54 55  1  1
 54 56  1  0
 56 57  1  0
 57 58  1  0
 58 59  1  0
 58 60  1  0
 60 61  1  0
 61 62  1  0
 62 63  1  0
 63 64  1  0
 64 65  1  0
 65 66  1  0
 66 67  1  0
 67 68  1  6
 67 69  1  0
 69 70  1  0
 70 71  1  0
 71 72  1  6
 71 73  1  0
 73 74  1  0
 74 75  1  0
 75 76  1  0
 76 77  1  1
 76 78  1  0
 78 79  1  0
 79 80  1  0
 79 81  1  0
 28 13  1  0
 31 27  1  0
M  RAD  8   9   2  14   2  17   2  30   3  36   3  46   2  48   3  50   2
M  CHG  1  17   1
M  RAD  6  55   3  57   2  58   2  68   3  73   2  78   2
M  END
$$$$
