
     RDKit          3D

 82 82  0  0  0  0  0  0  0  0999 V2000
   23.4646    2.6793    2.4636 C   0  0  0  0  0  0  0  0  0  0  0  0
   22.7197    1.6590    3.3107 C   0  0  0  0  0  0  0  0  0  0  0  0
   23.1555    1.8151    4.7684 C   0  0  0  0  0  0  0  0  0  0  0  0
   21.2401    1.9989    3.2532 C   0  0  0  0  0  0  0  0  0  0  0  0
   20.7243    1.9491    1.8395 C   0  0  0  0  0  0  0  0  0  0  0  0
   20.8754    0.6076    1.1930 C   0  0  0  0  0  0  0  0  0  0  0  0
   20.1625   -0.5055    1.8874 C   0  0  1  0  0  0  0  0  0  0  0  0
   20.6541   -0.6838    3.3090 C   0  0  0  0  0  0  0  0  0  0  0  0
   18.6584   -0.3320    1.8715 C   0  0  0  0  0  3  0  0  0  0  0  0
   17.9777   -1.4717    2.5726 C   0  0  0  0  0  0  0  0  0  0  0  0
   18.2864   -2.8052    1.9238 C   0  0  0  0  0  0  0  0  0  0  0  0
   17.7801   -2.6953    0.4845 C   0  0  1  0  0  0  0  0  0  0  0  0
   18.0780   -4.0204   -0.1873 C   0  0  0  0  0  0  0  0  0  0  0  0
   16.2908   -2.4434    0.5767 C   0  0  0  0  0  3  0  0  0  0  0  0
   15.6610   -2.3136   -0.7927 C   0  0  0  0  0  0  0  0  0  0  0  0
   16.2602   -1.1664   -1.5764 C   0  0  0  0  0  0  0  0  0  0  0  0
   17.7466   -1.3457   -1.7850 C   0  0  0  0  0  0  0  0  0  0  0  0
   15.5449   -1.1016   -2.9097 C   0  0  0  0  0  0  0  0  0  0  0  0
   14.0692   -0.8688   -2.6659 C   0  0  0  0  0  0  0  0  0  0  0  0
   13.8334    0.4309   -1.9202 C   0  0  0  0  0  0  0  0  0  0  0  0
   12.3476    0.6012   -1.7107 C   0  0  0  0  0  0  0  0  0  0  0  0
   11.7906   -0.5453   -0.9069 C   0  0  0  0  0  0  0  0  0  0  0  0
   10.4137   -0.3404   -0.7407 O   0  0  0  0  0  0  0  0  0  0  0  0
    9.8451   -1.3682   -0.0062 C   0  0  0  0  0  3  0  0  0  0  0  0
    8.8382   -0.8292    0.9407 C   0  0  0  0  0  0  0  0  0  0  0  0
    8.5809   -0.0720    2.2109 C   0  0  0  0  0  0  0  0  0  0  0  0
    8.9596   -0.7556    3.5099 C   0  0  0  0  0  0  0  0  0  0  0  0
    8.8339    1.4285    2.1725 C   0  0  0  0  0  0  0  0  0  0  0  0
    7.5672   -0.6341    1.3307 C   0  0  0  0  0  0  0  0  0  0  0  0
    6.1380   -0.9007    0.9608 C   0  0  0  0  0  0  0  0  0  0  0  0
    5.4460    0.4286    0.7979 C   0  0  0  0  0  3  0  0  0  0  0  0
    4.0045    0.3122    0.4237 C   0  0  2  0  0  0  0  0  0  0  0  0
    3.1936   -0.4364    1.4359 C   0  0  0  0  0  0  0  0  0  0  0  0
    3.8588   -0.3336   -0.9272 C   0  0  0  0  0  0  0  0  0  0  0  0
    4.5639    0.4932   -1.9695 C   0  0  0  0  0  3  0  0  0  0  0  0
    4.4170   -0.1435   -3.3270 C   0  0  0  0  0  0  0  0  0  0  0  0
    2.9295   -0.2241   -3.6713 C   0  0  0  0  0  0  0  0  0  0  0  0
    2.3224   -0.9976   -2.6939 F   0  0  0  0  0  0  0  0  0  0  0  0
    2.4267    1.2041   -3.6234 C   0  0  0  0  0  0  0  0  0  0  0  0
    0.9373    1.2932   -3.9511 C   0  0  1  0  0  0  0  0  0  0  0  0
    0.1403    0.4868   -2.9618 C   0  0  0  0  0  0  0  0  0  0  0  0
    0.6012    2.7825   -3.7774 C   0  0  0  0  0  0  0  0  0  0  0  0
    0.8662    3.2109   -2.3745 C   0  0  0  0  0  0  0  0  0  0  0  0
   -0.0252    2.5098   -1.3886 C   0  0  0  0  0  0  0  0  0  0  0  0
   -1.4633    2.9106   -1.7082 C   0  0  0  0  0  0  0  0  0  0  0  0
   -2.4501    2.3219   -0.7701 C   0  0  0  0  0  0  0  0  0  0  0  0
   -2.5102    0.8315   -0.7831 C   0  0  0  0  0  3  0  0  0  0  0  0
   -3.0455    0.3843   -2.1309 C   0  0  0  0  0  0  0  0  0  0  0  0
   -4.4458    0.9663   -2.3529 C   0  0  0  0  0  3  0  0  0  0  0  0
   -5.4029    0.4924   -1.2731 C   0  0  0  0  0  0  0  0  0  0  0  0
   -5.5773   -0.8802   -1.3638 F   0  0  0  0  0  0  0  0  0  0  0  0
   -4.9210    0.9122    0.0815 C   0  0  0  0  0  0  0  0  0  0  0  0
   -5.8681    0.4433    1.1441 C   0  0  0  0  0  0  0  0  0  0  0  0
   -7.2604    0.9862    1.0013 C   0  0  0  0  0  0  0  0  0  0  0  0
   -7.9010    0.5945   -0.3178 C   0  0  0  0  0  0  0  0  0  0  0  0
   -9.3107    1.1766   -0.3966 C   0  0  0  0  0  0  0  0  0  0  0  0
  -10.1395    0.6301    0.7499 C   0  0  0  0  0  0  0  0  0  0  0  0
  -10.2277   -0.8759    0.6766 C   0  0  1  0  0  0  0  0  0  0  0  0
  -11.0501   -1.4115    1.8176 C   0  0  0  0  0  2  0  0  0  0  0  0
  -10.7107   -1.3067   -0.6630 C   0  0  0  0  0  0  0  0  0  0  0  0
  -12.0345   -0.8153   -1.0542 C   0  0  0  0  0  0  0  0  0  0  0  0
  -12.2453    0.6358   -1.1298 C   0  0  0  0  0  0  0  0  0  0  0  0
  -13.1950   -1.7084   -0.9272 C   0  0  1  0  0  0  0  0  0  0  0  0
  -13.4530   -2.1805    0.4630 C   0  0  0  0  0  2  0  0  0  0  0  0
  -14.4205   -1.0322   -1.5090 C   0  0  0  0  0  0  0  0  0  0  0  0
  -14.6729    0.2558   -0.7415 C   0  0  0  0  0  0  0  0  0  0  0  0
  -15.8872    0.9487   -1.3015 C   0  0  0  0  0  0  0  0  0  0  0  0
  -15.7304    1.3051   -2.7647 C   0  0  0  0  0  0  0  0  0  0  0  0
  -17.1025    0.0902   -1.0644 C   0  0  2  0  0  0  0  0  0  0  0  0
  -18.2904    0.8277   -1.6430 C   0  0  0  0  0  0  0  0  0  0  0  0
  -17.2323   -0.1385    0.4228 C   0  0  0  0  0  0  0  0  0  0  0  0
  -18.4465   -1.0029    0.7378 C   0  0  0  0  0  0  0  0  0  0  0  0
  -18.4896   -1.1735    2.2416 C   0  0  0  0  0  3  0  0  0  0  0  0
  -19.6709   -2.0247    2.6627 C   0  0  0  0  0  0  0  0  0  0  0  0
  -20.9915   -1.3979    2.2355 C   0  0  0  0  0  0  0  0  0  0  0  0
  -21.1529   -0.0140    2.8752 C   0  0  1  0  0  0  0  0  0  0  0  0
  -20.0177    0.8886    2.4398 C   0  0  0  0  0  0  0  0  0  0  0  0
  -22.4676    0.5459    2.3747 C   0  0  2  0  0  0  0  0  0  0  0  0
  -23.5683   -0.3944    2.8029 C   0  0  0  0  0  2  0  0  0  0  0  0
  -22.3798    0.6326    0.8629 C   0  0  0  0  0  0  0  0  0  0  0  0
  -23.6637    1.1879    0.2710 C   0  0  0  0  0  0  0  0  0  0  0  0
  -24.7831    0.2522    0.6644 C   0  0  0  0  0  0  0  0  0  0  0  0
  1  2  1  0
  2  3  1  0
  2  4  1  0
  4  5  1  0
  5  6  1  0
  6  7  1  0
  7  8  1  1
  7  9  1  0
  9 10  1  0
 10 11  1  0
 11 12  1  0
 12 13  1  6
 12 14  1  0
 14 15  1  0
 15 16  1  0
 16 17  1  0
 16 18  1  0
 18 19  1  0
 19 20  1  0
 20 21  1  0
 21 22  1  0
 22 23  1  0
 23 24  1  0
 24 25  1  0
 25 26  1  0
 26 27  1  0
 26 28  1  0
 26 29  1  0
 29 30  1  0
 30 31  1  0
 31 32  1  0
 32 33  1  1
 32 34  1  0
 34 35  1  0
 35 36  1  0
 36 37  1  0
 37 38  1  0
 37 39  1  0
 39 40  1  0
 40 41  1  1
 40 42  1  0
 42 43  1  0
 43 44  1  0
 44 45  1  0
 45 46  1  0
 46 47  1  0
 47 48  1  0
 48 49  1  0
 49 50  1  0
 50 51  1  0
 50 52  1  0
 52 53  1  0
 53 54  1  0
 54 55  1  0
 55 56  1  0
 56 57  1  0
 57 58  1  0
 58 59  1  1
 58 60  1  0
 60 61  1  0
 61 62  1  0
 61 63  1  0
 63 64  1  1
 63 65  1  0
 65 66  1  0
 66 67  1  0
 67 68  1  0
 67 69  1  0
 69 70  1  1
 69 71  1  0
 71 72  1  0
 72 73  1  0
 73 74  1  0
 74 75  1  0
 75 76  1  0
 76 77  1  6
 76 78  1  0
 78 79  1  6
 78 80  1  0
 80 81  1  0
 81 82  1  0
 25 29  2  0
M  RAD  8   9   2  14   2  24   2  31   2  35   2  47   2  49   2  59   3
M  RAD  3  64   3  73   2  79   3
M  END
$$$$
