
     RDKit          2D

 88 88  0  0  0  0  0  0  0  0999 V2000
    9.5260    9.0933    0.0000 C   0  0  0  0  0  0  0  0  0  0  0  0
   10.2760    7.7942    0.0000 C   0  0  0  0  0  0  0  0  0  0  0  0
   11.7760    7.7942    0.0000 C   0  0  0  0  0  0  0  0  0  0  0  0
    9.5260    6.4952    0.0000 C   0  0  0  0  0  0  0  0  0  0  0  0
   10.2760    5.1962    0.0000 C   0  0  0  0  0  0  0  0  0  0  0  0
    9.5260    3.8971    0.0000 C   0  0  0  0  0  0  0  0  0  0  0  0
   10.2760    2.5981    0.0000 C   0  0  0  0  0  0  0  0  0  0  0  0
   11.7760    2.5981    0.0000 C   0  0  0  0  0  0  0  0  0  0  0  0
    9.5260    1.2990    0.0000 C   0  0  0  0  0  3  0  0  0  0  0  0
    8.0260    1.2990    0.0000 C   0  0  0  0  0  3  0  0  0  0  0  0
    7.2760    0.0000    0.0000 C   0  0  0  0  0  0  0  0  0  0  0  0
    5.7760    0.0000    0.0000 C   0  0  0  0  0  3  0  0  0  0  0  0
    5.0260   -1.2990    0.0000 C   0  0  0  0  0  0  0  0  0  0  0  0
    5.7760   -2.5981    0.0000 C   0  0  0  0  0  2  0  0  0  0  0  0
    3.5260   -1.2990    0.0000 C   0  0  0  0  0  0  0  0  0  0  0  0
    2.7760    0.0000    0.0000 C   0  0  0  0  0  0  0  0  0  0  0  0
    3.5260    1.2990    0.0000 C   0  0  0  0  0  0  0  0  0  0  0  0
    5.0260    1.2990    0.0000 C   0  0  0  0  0  0  0  0  0  0  0  0
    5.7760    2.5981    0.0000 C   0  0  0  0  0  0  0  0  0  0  0  0
    7.2760    2.5981    0.0000 C   0  0  0  0  0  0  0  0  0  0  0  0
    1.2760    0.0000    0.0000 C   0  0  0  0  0  0  0  0  0  0  0  0
    0.3943    1.2135    0.0000 O   0  0  0  0  0  0  0  0  0  0  0  0
   -1.0323    0.7500    0.0000 C   0  0  0  0  0  0  0  0  0  0  0  0
   -1.0323   -0.7500    0.0000 C   0  0  0  0  0  0  0  0  0  0  0  0
    0.3943   -1.2135    0.0000 C   0  0  0  0  0  0  0  0  0  0  0  0
    1.6933   -1.9635    0.0000 C   0  0  0  0  0  2  0  0  0  0  0  0
   -0.2158   -2.5838    0.0000 C   0  0  0  0  0  0  0  0  0  0  0  0
   -1.7076   -2.7406    0.0000 C   0  0  0  0  0  0  0  0  0  0  0  0
   -2.3177   -4.1110    0.0000 C   0  0  0  0  0  0  0  0  0  0  0  0
   -3.8095   -4.2677    0.0000 C   0  0  0  0  0  0  0  0  0  0  0  0
   -1.4360   -5.3245    0.0000 C   0  0  0  0  0  0  0  0  0  0  0  0
   -2.0461   -6.6948    0.0000 C   0  0  0  0  0  3  0  0  0  0  0  0
   -1.1644   -7.9083    0.0000 C   0  0  0  0  0  0  0  0  0  0  0  0
   -1.7745   -9.2786    0.0000 C   0  0  0  0  0  2  0  0  0  0  0  0
    0.3273   -7.7515    0.0000 C   0  0  0  0  0  0  0  0  0  0  0  0
    1.2090   -8.9651    0.0000 C   0  0  0  0  0  0  0  0  0  0  0  0
    2.7008   -8.8083    0.0000 C   0  0  0  0  0  3  0  0  0  0  0  0
    3.5825  -10.0218    0.0000 C   0  0  0  0  0  0  0  0  0  0  0  0
    5.0743   -9.8650    0.0000 C   0  0  0  0  0  2  0  0  0  0  0  0
    2.9724  -11.3921    0.0000 C   0  0  0  0  0  0  0  0  0  0  0  0
    3.8541  -12.6056    0.0000 C   0  0  0  0  0  0  0  0  0  0  0  0
    3.2439  -13.9760    0.0000 C   0  0  0  0  0  0  0  0  0  0  0  0
    5.3458  -12.4488    0.0000 C   0  0  0  0  0  3  0  0  0  0  0  0
    6.2275  -13.6624    0.0000 C   0  0  0  0  0  0  0  0  0  0  0  0
    7.7193  -13.5056    0.0000 C   0  0  0  0  0  0  0  0  0  0  0  0
    8.6010  -14.7191    0.0000 C   0  0  0  0  0  2  0  0  0  0  0  0
    8.3294  -12.1353    0.0000 C   0  0  0  0  0  0  0  0  0  0  0  0
    9.8212  -11.9785    0.0000 C   0  0  0  0  0  3  0  0  0  0  0  0
   10.4313  -10.6081    0.0000 C   0  0  0  0  0  3  0  0  0  0  0  0
   11.9231  -10.4514    0.0000 C   0  0  0  0  0  3  0  0  0  0  0  0
   12.5332   -9.0810    0.0000 C   0  0  0  0  0  3  0  0  0  0  0  0
   14.0250   -8.9242    0.0000 C   0  0  0  0  0  3  0  0  0  0  0  0
   14.6351   -7.5539    0.0000 C   0  0  0  0  0  0  0  0  0  0  0  0
   13.7534   -6.3404    0.0000 Cl  0  0  0  0  0  0  0  0  0  0  0  0
   16.1268   -7.3971    0.0000 C   0  0  0  0  0  3  0  0  0  0  0  0
   16.7370   -6.0268    0.0000 C   0  0  0  0  0  3  0  0  0  0  0  0
   18.2287   -5.8700    0.0000 C   0  0  0  0  0  0  0  0  0  0  0  0
   18.8388   -4.4997    0.0000 C   0  0  0  0  0  0  0  0  0  0  0  0
   20.3306   -4.3429    0.0000 C   0  0  0  0  0  2  0  0  0  0  0  0
   17.9572   -3.2862    0.0000 C   0  0  0  0  0  3  0  0  0  0  0  0
   18.5673   -1.9159    0.0000 C   0  0  0  0  0  3  0  0  0  0  0  0
   17.6856   -0.7023    0.0000 C   0  0  0  0  0  3  0  0  0  0  0  0
   18.2957    0.6680    0.0000 C   0  0  0  0  0  0  0  0  0  0  0  0
   17.4140    1.8815    0.0000 C   0  0  0  0  0  2  0  0  0  0  0  0
   19.7875    0.8248    0.0000 C   0  0  0  0  0  0  0  0  0  0  0  0
   20.3976    2.1951    0.0000 C   0  0  0  0  0  0  0  0  0  0  0  0
   21.8894    2.3519    0.0000 C   0  0  0  0  0  0  0  0  0  0  0  0
   22.4995    3.7222    0.0000 C   0  0  0  0  0  2  0  0  0  0  0  0
   22.7710    1.1384    0.0000 C   0  0  0  0  0  0  0  0  0  0  0  0
   24.2628    1.2952    0.0000 C   0  0  0  0  0  0  0  0  0  0  0  0
   25.1445    0.0816    0.0000 C   0  0  0  0  0  0  0  0  0  0  0  0
   26.6363    0.2384    0.0000 C   0  0  0  0  0  0  0  0  0  0  0  0
   27.5180   -0.9751    0.0000 C   0  0  0  0  0  2  0  0  0  0  0  0
   27.2464    1.6087    0.0000 C   0  0  0  0  0  3  0  0  0  0  0  0
   28.7382    1.7655    0.0000 C   0  0  0  0  0  3  0  0  0  0  0  0
   29.3483    3.1359    0.0000 C   0  0  0  0  0  3  0  0  0  0  0  0
   30.8401    3.2926    0.0000 C   0  0  0  0  0  0  0  0  0  0  0  0
   31.4502    4.6630    0.0000 C   0  0  0  0  0  2  0  0  0  0  0  0
   31.7217    2.0791    0.0000 C   0  0  0  0  0  0  0  0  0  0  0  0
   33.2135    2.2359    0.0000 C   0  0  0  0  0  0  0  0  0  0  0  0
   34.0952    1.0224    0.0000 C   0  0  0  0  0  3  0  0  0  0  0  0
   35.5870    1.1792    0.0000 C   0  0  0  0  0  0  0  0  0  0  0  0
   36.4687   -0.0343    0.0000 C   0  0  0  0  0  0  0  0  0  0  0  0
   36.1971    2.5495    0.0000 C   0  0  0  0  0  3  0  0  0  0  0  0
   37.6889    2.7063    0.0000 C   0  0  0  0  0  3  0  0  0  0  0  0
   38.2990    4.0766    0.0000 C   0  0  0  0  0  3  0  0  0  0  0  0
   39.7908    4.2334    0.0000 C   0  0  0  0  0  3  0  0  0  0  0  0
   40.4009    5.6037    0.0000 C   0  0  0  0  0  2  0  0  0  0  0  0
  1  2  1  0
  2  3  1  0
  2  4  1  0
  4  5  1  0
  5  6  1  0
  6  7  1  0
  7  8  1  1
  7  9  1  0
  9 10  1  0
 10 11  1  0
 11 12  1  0
 12 13  1  0
 13 14  1  1
 13 15  1  0
 16 15  1  6
 16 17  1  0
 17 18  1  0
 18 19  1  0
 19 20  1  0
 16 21  1  0
 21 22  1  0
 22 23  1  0
 23 24  1  0
 24 25  1  0
 25 26  1  0
 25 27  1  0
 27 28  1  0
 28 29  1  0
 29 30  1  6
 29 31  1  0
 31 32  1  0
 32 33  1  0
 33 34  1  6
 33 35  1  0
 35 36  1  0
 36 37  1  0
 37 38  1  0
 38 39  1  1
 38 40  1  0
 40 41  1  0
 41 42  1  6
 41 43  1  0
 43 44  1  0
 44 45  1  0
 45 46  1  6
 45 47  1  0
 47 48  1  0
 48 49  1  0
 49 50  1  0
 50 51  1  0
 51 52  1  0
 52 53  1  0
 53 54  1  0
 53 55  1  0
 55 56  1  0
 56 57  1  0
 57 58  1  0
 58 59  1  6
 58 60  1  0
 60 61  1  0
 61 62  1  0
 62 63  1  0
 63 64  1  1
 63 65  1  0
 65 66  1  0
 66 67  1  0
 67 68  1  1
 67 69  1  0
 69 70  1  0
 70 71  1  0
 71 72  1  0
 72 73  1  6
 72 74  1  0
 74 75  1  0
 75 76  1  0
 76 77  1  0
 77 78  1  1
 77 79  1  0
 79 80  1  0
 80 81  1  0
 81 82  1  0
 82 83  1  6
 82 84  1  0
 84 85  1  0
 85 86  1  0
 86 87  1  0
 87 88  1  0
 25 21  1  0
M  RAD  8   9   2  10   2  12   2  14   3  26   3  32   2  34   3  37   2
M  RAD  8  39   3  43   2  46   3  48   2  49   2  50   2  51   2  52   2
M  RAD  8  55   2  56   2  59   3  60   2  61   2  62   2  64   3  68   3
M  RAD  8  73   3  74   2  75   2  76   2  78   3  81   2  84   2  85   2
M  RAD  3  86   2  87   2  88   3
M  END
$$$$
