
     RDKit          3D

 26 28  0  0  0  0  0  0  0  0999 V2000
    5.3366   -0.0177   -1.4761 C   0  0  0  0  0  0  0  0  0  0  0  0
    4.8684    1.1356   -0.6136 C   0  0  0  0  0  0  0  0  0  0  0  0
    4.1184    2.1730   -1.3956 C   0  0  0  0  0  0  0  0  0  0  0  0
    4.0915    0.6612    0.5846 C   0  0  0  0  0  0  0  0  0  0  0  0
    2.8685   -0.1125    0.2084 C   0  0  0  0  0  0  0  0  0  0  0  0
    1.9018    0.7160   -0.6322 C   0  0  0  0  0  0  0  0  0  0  0  0
    0.7273   -0.1531   -0.9459 C   0  0  1  0  0  0  0  0  0  0  0  0
   -0.3285    0.5021   -1.7699 C   0  0  0  0  0  0  0  0  0  0  0  0
    1.0920   -1.5312   -1.4097 C   0  0  0  0  0  3  0  0  0  0  0  0
    1.7907   -2.2299   -0.2415 C   0  0  0  0  0  3  0  0  0  0  0  0
    0.9374   -3.3717    0.2759 C   0  0  0  0  0  0  0  0  0  0  0  0
   -0.1687   -2.8739    1.1839 C   0  0  1  0  0  0  0  0  0  0  0  0
   -0.2866   -3.6934    2.4455 C   0  0  0  0  0  0  0  0  0  0  0  0
    0.0490   -1.4293    1.5782 C   0  0  0  0  0  0  0  0  0  0  0  0
   -1.1333   -0.9984    2.4210 C   0  0  0  0  0  0  0  0  0  0  0  0
   -2.2627   -1.8138    2.0578 N   0  0  0  0  0  0  0  0  0  0  0  0
   -1.4578    0.4320    2.0006 C   0  0  0  0  0  3  0  0  0  0  0  0
   -2.6134    0.4516    1.0640 C   0  0  0  0  0  0  0  0  0  0  0  0
   -3.8604    0.2164    0.9366 C   0  0  0  0  0  0  0  0  0  0  0  0
   -4.8464   -0.2631    1.8478 O   0  0  0  0  0  0  0  0  0  0  0  0
   -3.8540    0.6225   -0.4584 C   0  0  0  0  0  0  0  0  0  0  0  0
   -2.4364    0.8797   -0.2785 C   0  0  0  0  0  0  0  0  0  0  0  0
   -1.9551    2.2839   -0.3539 C   0  0  0  0  0  0  0  0  0  0  0  0
   -1.6398    3.7426   -0.2931 C   0  0  0  0  0  0  0  0  0  0  0  0
   -0.9339    2.7105   -1.0356 C   0  0  0  0  0  0  0  0  0  0  0  0
   -0.0047    1.9608   -1.8884 C   0  0  0  0  0  0  0  0  0  0  0  0
  1  2  1  0
  2  3  1  0
  2  4  1  0
  4  5  1  0
  5  6  1  0
  7  6  1  6
  7  8  1  0
  7  9  1  0
  9 10  1  0
 10 11  1  0
 11 12  1  0
 12 13  1  1
 12 14  1  0
 14 15  1  0
 15 16  1  0
 15 17  1  0
 17 18  1  0
 18 19  2  0
 19 20  1  0
 19 21  1  0
 21 22  1  0
 22 23  1  0
 23 24  1  0
 23 25  2  0
 25 26  1  0
 26  8  1  0
 22 18  1  0
 25 24  1  0
M  RAD  3   9   2  10   2  17   2
M  END
$$$$
