
     RDKit          3D

 58 58  0  0  0  0  0  0  0  0999 V2000
    1.0164    4.2812   -1.2856 C   0  0  0  0  0  0  0  0  0  0  0  0
   -0.2419    3.7033   -1.1829 O   0  0  0  0  0  0  0  0  0  0  0  0
   -0.5898    2.9767   -2.3381 C   0  0  0  0  0  3  0  0  0  0  0  0
   -1.3105    1.8395   -2.0224 O   0  0  0  0  0  0  0  0  0  0  0  0
   -0.4411    0.7318   -2.0974 C   0  0  2  0  0  0  0  0  0  0  0  0
   -1.2449   -0.4783   -1.7484 C   0  0  0  0  0  0  0  0  0  0  0  0
   -2.4031   -0.7016   -2.6766 C   0  0  0  0  0  3  0  0  0  0  0  0
   -3.3710    0.4492   -2.6808 C   0  0  0  0  0  3  0  0  0  0  0  0
   -4.6797    0.0545   -3.3115 C   0  0  0  0  0  3  0  0  0  0  0  0
   -5.8056    0.5298   -2.4284 C   0  0  0  0  0  0  0  0  0  0  0  0
   -5.7558   -0.0557   -1.0571 C   0  0  2  0  0  0  0  0  0  0  0  0
   -5.8377   -1.5418   -1.0147 C   0  0  0  0  0  0  0  0  0  0  0  0
   -6.5880    0.6018   -0.1868 O   0  0  0  0  0  0  0  0  0  0  0  0
   -6.2079    0.4833    1.0718 O   0  0  0  0  0  0  0  0  0  0  0  0
   -7.4036    0.3924    1.8175 C   0  0  0  0  0  0  0  0  0  0  0  0
   -8.3985   -0.3765    0.9392 C   0  0  1  0  0  0  0  0  0  0  0  0
   -8.2854   -1.7137    1.3225 O   0  0  0  0  0  0  0  0  0  0  0  0
   -9.8530    0.2058    0.6901 S   0  0  0  0  0  0  0  0  0  0  0  0
  -11.3070   -0.6609    1.6520 O   0  0  0  0  0  0  0  0  0  0  0  0
  -10.7119   -0.7835    2.8098 O   0  0  0  0  0  0  0  0  0  0  0  0
  -10.4359    0.7299    3.5697 S   0  0  0  0  0  0  0  0  0  0  0  0
  -10.7901    2.0752    2.3773 C   0  0  0  0  0  2  0  0  0  0  0  0
  -10.2799   -0.1755   -1.0503 C   0  0  0  0  0  3  0  0  0  0  0  0
   -9.2866   -1.1855   -1.5541 C   0  0  0  0  0  3  0  0  0  0  0  0
   -8.4418   -0.5234   -2.4573 O   0  0  0  0  0  0  0  0  0  0  0  0
   -7.4308   -1.2811   -2.8051 O   0  0  0  0  0  0  0  0  0  0  0  0
   -7.0026   -2.1065   -1.7792 C   0  0  0  0  0  3  0  0  0  0  0  0
    0.5611    0.9507   -1.1929 O   0  0  0  0  0  0  0  0  0  0  0  0
    1.5088   -0.0282   -1.1215 C   0  0  2  0  0  0  0  0  0  0  0  0
    2.5869    0.2405   -0.1282 C   0  0  0  0  0  3  0  0  0  0  0  0
    1.7804    0.3922    1.5094 S   0  0  0  0  0  0  0  0  0  0  0  0
    2.9541    0.6943    2.7095 O   0  0  0  0  0  0  0  0  0  0  0  0
    4.0988    1.1649    2.0680 C   0  0  0  0  0  0  0  0  0  0  0  0
    5.1817    1.4456    3.1184 C   0  0  0  0  0  3  0  0  0  0  0  0
    5.9984    0.2152    3.3244 C   0  0  1  0  0  0  0  0  0  0  0  0
    5.1184   -0.7998    3.7687 O   0  0  0  0  0  0  0  0  0  0  0  0
    7.0090   -0.1365    2.1085 S   0  0  0  0  0  0  0  0  0  0  0  0
    6.6484   -0.4029    0.7361 F   0  0  0  0  0  0  0  0  0  0  0  0
    7.2752   -2.0113    2.6901 F   0  0  0  0  0  0  0  0  0  0  0  0
    8.6602    0.2273    2.4907 C   0  0  0  0  0  3  0  0  0  0  0  0
    9.0089    1.9077    2.0058 S   0  0  0  0  0  0  0  0  0  0  0  0
   10.6703    2.4700    2.3190 C   0  0  0  0  0  3  0  0  0  0  0  0
   11.6100    1.4836    2.8955 C   0  0  2  0  0  0  0  0  0  0  0  0
   12.0808    0.1219    1.8487 S   0  0  0  0  0  0  0  0  0  0  0  0
   10.8411   -0.9529    1.4604 F   0  0  0  0  0  0  0  0  0  0  0  0
   11.2498    1.0599    4.3029 C   0  0  0  0  0  0  0  0  0  0  0  0
   12.1496    0.1411    4.8032 F   0  0  0  0  0  0  0  0  0  0  0  0
    2.0256   -0.5741   -2.3935 C   0  0  2  0  0  0  0  0  0  0  0  0
    2.6865    0.3794   -3.3201 C   0  0  1  0  0  0  0  0  0  0  0  0
    1.8835    1.4242   -3.7550 O   0  0  0  0  0  0  0  0  0  0  0  0
    3.8932    0.8266   -2.7954 O   0  0  0  0  0  0  0  0  0  0  0  0
    4.6761    1.9315   -3.8493 S   0  0  0  0  0  0  0  0  0  0  0  0
    3.5050    3.2651   -4.2175 C   0  0  0  0  0  2  0  0  0  0  0  0
    1.0557   -1.8610   -3.1559 S   0  0  0  0  0  0  0  0  0  0  0  0
    1.0591   -3.3480   -2.1516 C   0  0  0  0  0  3  0  0  0  0  0  0
    2.0601   -3.0661   -0.6896 S   0  0  0  0  0  0  0  0  0  0  0  0
    2.1501   -4.4057    0.3482 O   0  0  0  0  0  0  0  0  0  0  0  0
    1.1009   -4.2529    1.6900 S   0  0  0  0  0  0  0  0  0  0  0  0
  1  2  1  0
  2  3  1  0
  3  4  1  0
  4  5  1  0
  5  6  1  1
  6  7  1  0
  7  8  1  0
  8  9  1  0
  9 10  1  0
 11 10  1  6
 11 12  1  0
 11 13  1  0
 13 14  1  0
 14 15  1  0
 15 16  1  0
 16 17  1  1
 16 18  1  0
 18 19  1  0
 19 20  1  0
 20 21  1  0
 21 22  1  0
 18 23  1  0
 23 24  1  0
 24 25  1  0
 25 26  1  0
 26 27  1  0
  5 28  1  0
 28 29  1  0
 29 30  1  6
 30 31  1  0
 31 32  1  0
 32 33  1  0
 33 34  1  0
 34 35  1  0
 35 36  1  6
 35 37  1  0
 37 38  1  0
 37 39  1  0
 37 40  1  0
 40 41  1  0
 41 42  1  0
 43 42  1  6
 43 44  1  0
 44 45  1  0
 43 46  1  0
 46 47  1  0
 29 48  1  0
 48 49  1  0
 49 50  1  1
 49 51  1  0
 51 52  1  0
 52 53  1  0
 48 54  1  6
 54 55  1  0
 55 56  1  0
 56 57  1  0
 57 58  1  0
 27 12  1  0
M  RAD  8   3   2   7   2   8   2   9   2  22   3  23   2  24   2  27   2
M  RAD  6  30   2  34   2  40   2  42   2  53   3  55   2
M  END
$$$$
