
     RDKit          2D

 74 75  0  0  0  0  0  0  0  0999 V2000
   22.8735  -15.2501    0.0000 C   0  0  0  0  0  0  0  0  0  0  0  0
   21.7078  -16.1941    0.0000 C   0  0  0  0  0  0  0  0  0  0  0  0
   21.9425  -17.6756    0.0000 C   0  0  0  0  0  0  0  0  0  0  0  0
   20.3074  -15.6565    0.0000 C   0  0  0  0  0  0  0  0  0  0  0  0
   19.1417  -16.6005    0.0000 C   0  0  0  0  0  0  0  0  0  0  0  0
   17.7414  -16.0629    0.0000 C   0  0  0  0  0  0  0  0  0  0  0  0
   16.5756  -17.0069    0.0000 C   0  0  0  0  0  0  0  0  0  0  0  0
   16.8103  -18.4884    0.0000 C   0  0  0  0  0  0  0  0  0  0  0  0
   15.1753  -16.4694    0.0000 C   0  0  0  0  0  3  0  0  0  0  0  0
   14.9406  -14.9878    0.0000 C   0  0  0  0  0  0  0  0  0  0  0  0
   13.5402  -14.4503    0.0000 C   0  0  0  0  0  0  0  0  0  0  0  0
   13.3056  -12.9687    0.0000 C   0  0  0  0  0  0  0  0  0  0  0  0
   14.4713  -12.0248    0.0000 C   0  0  0  0  0  0  0  0  0  0  0  0
   11.9052  -12.4312    0.0000 C   0  0  0  0  0  3  0  0  0  0  0  0
   10.7395  -13.3752    0.0000 C   0  0  0  0  0  0  0  0  0  0  0  0
    9.3391  -12.8376    0.0000 C   0  0  0  0  0  0  0  0  0  0  0  0
    9.1045  -11.3561    0.0000 N   0  0  0  0  0  1  0  0  0  0  0  0
    8.1734  -13.7816    0.0000 C   0  0  0  0  0  0  0  0  0  0  0  0
    6.7730  -13.2441    0.0000 C   0  0  0  0  0  0  0  0  0  0  0  0
    5.6073  -14.1880    0.0000 C   0  0  0  0  0  0  0  0  0  0  0  0
    6.5513  -15.3538    0.0000 O   0  0  0  0  0  0  0  0  0  0  0  0
    4.4416  -15.1320    0.0000 C   0  0  0  0  0  0  0  0  0  0  0  0
    3.4976  -13.9663    0.0000 C   0  0  0  0  0  0  0  0  0  0  0  0
    2.0058  -13.8095    0.0000 C   0  0  0  0  0  0  0  0  0  0  0  0
    4.6633  -13.0223    0.0000 C   0  0  0  0  0  0  0  0  0  0  0  0
    4.8201  -11.5305    0.0000 C   0  0  0  0  0  0  0  0  0  0  0  0
    6.1905  -10.9204    0.0000 C   0  0  0  0  0  0  0  0  0  0  0  0
    6.3472   -9.4286    0.0000 N   0  0  0  0  0  3  0  0  0  0  0  0
    7.7176   -8.8185    0.0000 C   0  0  0  0  0  0  0  0  0  0  0  0
    7.8744   -7.3268    0.0000 C   0  0  0  0  0  0  0  0  0  0  0  0
    9.2447   -6.7167    0.0000 C   0  0  0  0  0  0  0  0  0  0  0  0
   10.4582   -7.5983    0.0000 C   0  0  0  0  0  0  0  0  0  0  0  0
    9.4015   -5.2249    0.0000 C   0  0  0  0  0  0  0  0  0  0  0  0
   10.7718   -4.6148    0.0000 C   0  0  0  0  0  0  0  0  0  0  0  0
    8.1879   -4.3432    0.0000 C   0  0  0  0  0  0  0  0  0  0  0  0
    6.8176   -4.9533    0.0000 C   0  0  0  0  0  0  0  0  0  0  0  0
    5.6041   -4.0716    0.0000 C   0  0  0  0  0  0  0  0  0  0  0  0
    4.2338   -4.6817    0.0000 C   0  0  0  0  0  0  0  0  0  0  0  0
    4.0770   -6.1735    0.0000 C   0  0  0  0  0  0  0  0  0  0  0  0
    3.0203   -3.8000    0.0000 C   0  0  0  0  0  0  0  0  0  0  0  0
    3.1771   -2.3083    0.0000 C   0  0  0  0  0  0  0  0  0  0  0  0
    1.9635   -1.4266    0.0000 C   0  0  0  0  0  0  0  0  0  0  0  0
    2.4271    0.0000    0.0000 C   0  0  0  0  0  0  0  0  0  0  0  0
    3.9271    0.0000    0.0000 C   0  0  0  0  0  0  0  0  0  0  0  0
    4.6771   -1.2990    0.0000 C   0  0  0  0  0  0  0  0  0  0  0  0
    6.1771   -1.2990    0.0000 C   0  0  0  0  0  0  0  0  0  0  0  0
    6.9271   -2.5981    0.0000 C   0  0  0  0  0  1  0  0  0  0  0  0
    0.7500   -2.3083    0.0000 C   0  0  0  0  0  0  0  0  0  0  0  0
    1.2135   -3.7348    0.0000 C   0  0  0  0  0  0  0  0  0  0  0  0
   -0.7500   -2.3083    0.0000 C   0  0  0  0  0  0  0  0  0  0  0  0
   -1.9635   -1.4266    0.0000 C   0  0  0  0  0  0  0  0  0  0  0  0
   -2.4271    0.0000    0.0000 C   0  0  0  0  0  0  0  0  0  0  0  0
   -1.9635    1.4266    0.0000 C   0  0  0  0  0  0  0  0  0  0  0  0
   -0.7500    2.3083    0.0000 C   0  0  0  0  0  3  0  0  0  0  0  0
   -1.2135    3.7348    0.0000 C   0  0  0  0  0  2  0  0  0  0  0  0
    0.7500    2.3083    0.0000 C   0  0  0  0  0  0  0  0  0  0  0  0
    1.9635    1.4266    0.0000 C   0  0  0  0  0  3  0  0  0  0  0  0
    3.1771    2.3083    0.0000 C   0  0  0  0  0  0  0  0  0  0  0  0
    4.5474    1.6982    0.0000 C   0  0  0  0  0  0  0  0  0  0  0  0
    5.7609    2.5798    0.0000 C   0  0  0  0  0  0  0  0  0  0  0  0
    7.1312    1.9697    0.0000 C   0  0  0  0  0  0  0  0  0  0  0  0
    6.5211    0.5994    0.0000 C   0  0  0  0  0  0  0  0  0  0  0  0
    7.7413    3.3400    0.0000 C   0  0  0  0  0  0  0  0  0  0  0  0
    8.5015    1.3596    0.0000 C   0  0  0  0  0  0  0  0  0  0  0  0
    8.6583   -0.1322    0.0000 C   0  0  0  0  0  0  0  0  0  0  0  0
    7.4448   -1.0138    0.0000 C   0  0  0  0  0  2  0  0  0  0  0  0
   10.0286   -0.7423    0.0000 C   0  0  0  0  0  0  0  0  0  0  0  0
   11.2422    0.1394    0.0000 S   0  0  0  0  0  0  0  0  0  0  0  0
   10.1854   -2.2340    0.0000 C   0  0  0  0  0  0  0  0  0  0  0  0
   11.5558   -2.8441    0.0000 C   0  0  0  0  0  0  0  0  0  0  0  0
   12.9261   -3.4543    0.0000 C   0  0  0  0  0  0  0  0  0  0  0  0
   14.2964   -4.0644    0.0000 C   0  0  0  0  0  0  0  0  0  0  0  0
   14.4532   -5.5561    0.0000 C   0  0  0  0  0  0  0  0  0  0  0  0
   15.8235   -6.1662    0.0000 C   0  0  0  0  0  0  0  0  0  0  0  0
  1  2  1  0
  2  3  1  0
  2  4  1  0
  4  5  1  0
  5  6  1  0
  6  7  1  0
  7  8  1  1
  7  9  1  0
  9 10  1  0
 10 11  1  0
 11 12  1  0
 12 13  1  6
 12 14  1  0
 14 15  1  0
 15 16  1  0
 16 17  1  0
 16 18  1  0
 18 19  1  0
 19 20  1  0
 20 21  1  0
 20 22  1  0
 22 23  1  0
 23 24  1  0
 23 25  1  0
 25 26  1  1
 26 27  1  0
 27 28  2  3
 28 29  1  0
 29 30  2  3
 30 31  1  0
 31 32  1  0
 31 33  1  0
 33 34  1  0
 33 35  1  0
 35 36  1  0
 36 37  1  0
 37 38  1  0
 38 39  1  1
 38 40  1  0
 40 41  1  0
 41 42  1  0
 42 43  1  0
 43 44  1  0
 44 45  1  0
 45 46  1  0
 46 47  1  0
 42 48  1  0
 48 49  1  0
 48 50  1  0
 50 51  1  0
 51 52  1  0
 52 53  1  0
 53 54  1  0
 54 55  1  6
 54 56  1  0
 56 57  1  0
 57 58  1  1
 58 59  1  0
 59 60  1  0
 60 61  1  0
 61 62  1  0
 61 63  1  0
 61 64  1  0
 64 65  1  0
 65 66  1  0
 65 67  1  0
 67 68  1  0
 67 69  1  0
 69 70  1  0
 70 71  3  0
 71 72  1  0
 72 73  1  0
 73 74  1  0
 25 20  1  0
 57 43  1  0
M  RAD  8   9   2  14   2  17   2  28   2  47   2  54   2  55   3  57   2
M  CHG  2  17   1  28   1
M  RAD  1  66   3
M  END
$$$$
