
     RDKit          3D

 14 13  0  0  0  0  0  0  0  0999 V2000
   -4.5973    2.2311   -0.1167 C   0  0  0  0  0  0  0  0  0  0  0  0
   -3.5681    1.5193   -0.5436 C   0  0  0  0  0  0  0  0  0  0  0  0
   -2.8908    0.6172    0.3796 C   0  0  0  0  0  0  0  0  0  0  0  0
   -1.8583   -0.1093   -0.0144 C   0  0  0  0  0  0  0  0  0  0  0  0
   -1.1795   -1.0194    0.9275 C   0  0  0  0  0  0  0  0  0  0  0  0
    0.2783   -0.6678    1.1071 C   0  0  0  0  0  0  0  0  0  0  0  0
    0.9604   -0.7567   -0.1948 C   0  0  0  0  0  0  0  0  0  0  0  0
    0.9552   -2.0547   -0.8846 C   0  0  0  0  0  0  0  0  0  0  0  0
    1.6098   -3.0794   -0.0481 C   0  0  0  0  0  0  0  0  0  0  0  0
    1.7456   -4.2443   -0.3734 O   0  0  0  0  0  0  0  0  0  0  0  0
    2.0229    0.0687   -0.3992 O   0  0  0  0  0  0  0  0  0  0  0  0
    1.5922    1.3882   -0.2829 C   0  0  0  0  0  0  0  0  0  0  0  0
    2.7554    2.3563   -0.5054 C   0  0  0  0  0  0  0  0  0  0  0  0
    2.1741    3.7509   -0.3562 C   0  0  0  0  0  0  0  0  0  0  0  0
  1  2  2  0
  2  3  1  0
  3  4  2  3
  4  5  1  0
  5  6  1  0
  6  7  1  0
  7  8  1  0
  8  9  1  0
  9 10  2  0
  7 11  1  0
 11 12  1  0
 12 13  1  0
 13 14  1  0
M  END
$$$$
