
     RDKit          3D

 28 29  0  0  0  0  0  0  0  0999 V2000
   -2.3748    1.9400    0.0125 C   0  0  0  0  0  0  0  0  0  0  0  0
   -2.0566    2.8615   -1.1133 C   0  0  0  0  0  0  0  0  0  0  0  0
   -2.2693    2.2912   -2.4729 C   0  0  0  0  0  0  0  0  0  0  0  0
   -0.7623    3.6015   -0.9639 C   0  0  0  0  0  0  0  0  0  0  0  0
    0.4446    2.7989   -1.3305 C   0  0  0  0  0  0  0  0  0  0  0  0
    1.1806    2.3407   -0.0963 C   0  0  0  0  0  0  0  0  0  0  0  0
    2.5795    2.9241   -0.0627 C   0  0  1  0  0  0  0  0  0  0  0  0
    2.7138    3.8580    1.1304 C   0  0  0  0  0  0  0  0  0  0  0  0
    3.5900    1.8241    0.0381 C   0  0  0  0  0  3  0  0  0  0  0  0
    3.0550    0.6251    0.7532 C   0  0  0  0  0  0  0  0  0  0  0  0
    4.2168   -0.2854    1.0888 C   0  0  0  0  0  0  0  0  0  0  0  0
    4.0676   -1.5379    0.2428 C   0  0  0  0  0  0  0  0  0  0  0  0
    4.6269   -2.7498    0.9825 C   0  0  0  0  0  0  0  0  0  0  0  0
    4.8813   -1.3700   -1.0345 C   0  0  0  0  0  0  0  0  0  0  0  0
    2.6473   -1.7800   -0.1259 C   0  0  0  0  0  0  0  0  0  0  0  0
    1.9709   -2.8435    0.2986 C   0  0  0  0  0  0  0  0  0  0  0  0
    0.5690   -3.0655   -0.0760 C   0  0  0  0  0  0  0  0  0  0  0  0
    0.0958   -2.1059   -1.1276 C   0  0  0  0  0  0  0  0  0  0  0  0
   -1.3074   -1.6223   -0.8257 C   0  0  0  0  0  0  0  0  0  0  0  0
   -1.2804   -0.1095   -0.9121 C   0  0  0  0  0  0  0  0  0  0  0  0
   -1.7609   -2.2082    0.8206 S   0  0  0  0  0  0  0  0  0  0  0  0
   -3.4989   -2.7123    0.9013 C   0  0  0  0  0  0  0  0  0  0  0  0
   -4.3506   -1.6285    1.5662 C   0  0  0  0  0  0  0  0  0  0  0  0
   -3.6086   -1.2428    2.8528 C   0  0  0  0  0  0  0  0  0  0  0  0
   -4.2332   -0.5024    0.7212 O   0  0  0  0  0  0  0  0  0  0  0  0
   -2.9680   -0.2016    0.7044 O   0  0  0  0  0  0  0  0  0  0  0  0
   -2.5749    0.5062   -0.4239 C   0  0  0  0  0  0  0  0  0  0  0  0
   -3.5932    0.3943   -1.5480 C   0  0  0  0  0  2  0  0  0  0  0  0
  1  2  1  0
  2  3  1  0
  2  4  1  0
  4  5  1  0
  5  6  1  0
  6  7  1  0
  7  8  1  1
  7  9  1  0
  9 10  1  0
 10 11  1  0
 11 12  1  0
 12 13  1  0
 12 14  1  0
 12 15  1  0
 15 16  2  3
 16 17  1  0
 17 18  1  0
 18 19  1  0
 19 20  1  0
 19 21  1  0
 21 22  1  0
 22 23  1  0
 23 24  1  0
 23 25  1  0
 25 26  1  0
 26 27  1  0
 27 28  1  0
 27  1  1  0
 27 20  1  0
M  RAD  2   9   2  28   3
M  END
$$$$
