
     RDKit          3D

 26 27  0  0  0  0  0  0  0  0999 V2000
    5.6287   -0.3392   -1.0375 C   0  0  0  0  0  0  0  0  0  0  0  0
    4.1750   -0.6495   -0.7341 C   0  0  0  0  0  0  0  0  0  0  0  0
    4.0850   -1.0964    0.7134 C   0  0  0  0  0  0  0  0  0  0  0  0
    3.7570   -1.7539   -1.6807 C   0  0  0  0  0  0  0  0  0  0  0  0
    3.3783    0.5953   -0.8975 C   0  0  0  0  0  0  0  0  0  0  0  0
    1.9292    0.4648   -0.6367 C   0  0  0  0  0  0  0  0  0  0  0  0
    1.2565    1.7987   -0.8407 C   0  0  0  0  0  0  0  0  0  0  0  0
    1.4347    2.3071   -2.2459 C   0  0  0  0  0  0  0  0  0  0  0  0
   -0.0818    1.8832   -0.3659 N   0  0  0  0  0  0  0  0  0  0  0  0
   -0.2388    2.2875    1.0079 C   0  0  0  0  0  0  0  0  0  0  0  0
   -1.2976    1.3778    1.6667 C   0  0  0  0  0  0  0  0  0  0  0  0
   -1.0876    0.0525    1.0527 C   0  0  0  0  0  0  0  0  0  0  0  0
   -1.4183    0.0151   -0.4187 C   0  0  0  0  0  0  0  0  0  0  0  0
   -2.7633    0.3612   -0.5388 O   0  0  0  0  0  0  0  0  0  0  0  0
   -3.1598    0.3597   -1.7929 O   0  0  0  0  0  0  0  0  0  0  0  0
   -4.3243    0.9702   -1.8678 O   0  0  0  0  0  0  0  0  0  0  0  0
   -5.3127    0.0929   -2.0477 O   0  0  0  0  0  0  0  0  0  0  0  0
    0.2915   -0.3936    1.3741 C   0  0  0  0  0  0  0  0  0  0  0  0
    1.1744    0.1759    1.9469 O   0  0  0  0  0  0  0  0  0  0  0  0
    1.2590   -0.6829   -1.1929 C   0  0  0  0  0  0  0  0  0  0  0  0
    0.5818   -1.6504   -0.6361 C   0  0  0  0  0  0  0  0  0  0  0  0
    0.3527   -1.7616    0.8125 C   0  0  2  0  0  0  0  0  0  0  0  0
   -1.0699   -2.2862    1.1093 C   0  0  0  0  0  0  0  0  0  0  0  0
   -1.8224   -1.0913    1.6510 C   0  0  0  0  0  0  0  0  0  0  0  0
   -2.8379   -1.0989    2.4308 C   0  0  0  0  0  0  0  0  0  0  0  0
   -3.8893   -0.9721    3.1685 C   0  0  0  0  0  0  0  0  0  0  0  0
  1  2  1  0
  2  3  1  0
  2  4  1  0
  2  5  1  0
  5  6  1  0
  6  7  1  0
  7  8  1  0
  7  9  1  0
  9 10  1  0
 10 11  1  0
 11 12  1  0
 12 13  1  0
 13 14  1  0
 14 15  1  0
 15 16  1  0
 16 17  1  0
 12 18  1  0
 18 19  2  0
  6 20  1  0
 20 21  2  3
 21 22  1  0
 22 23  1  6
 23 24  1  0
 24 25  2  0
 25 26  2  0
 24 12  1  0
 22 18  1  0
M  END
$$$$
