
     RDKit          3D

 47 50  0  0  0  0  0  0  0  0999 V2000
   -8.0999    0.7982    0.4297 C   0  0  0  0  0  0  0  0  0  0  0  0
   -6.6476    0.9100    0.0110 C   0  0  0  0  0  0  0  0  0  0  0  0
   -5.8192    0.9361    1.2691 C   0  0  0  0  0  0  0  0  0  0  0  0
   -4.3417    1.0445    1.0204 C   0  0  0  0  0  0  0  0  0  0  0  0
   -3.6546    1.0593    2.3695 C   0  0  0  0  0  0  0  0  0  0  0  0
   -4.4002    2.0541    3.2374 C   0  0  0  0  0  0  0  0  0  0  0  0
   -2.2312    1.5041    2.2925 C   0  0  1  0  0  0  0  0  0  0  0  0
   -2.0538    2.2926    1.0208 C   0  0  0  0  0  0  0  0  0  0  0  0
   -0.8077    2.3648    0.2879 C   0  0  0  0  0  0  0  0  0  0  0  0
   -1.7579    1.2369   -0.0448 C   0  0  0  0  0  0  0  0  0  0  0  0
   -2.5200    0.2124   -0.4083 C   0  0  0  0  0  0  0  0  0  0  0  0
   -3.8637   -0.1249    0.1722 C   0  0  0  0  0  0  0  0  0  0  0  0
   -4.8667   -0.3662   -0.8998 C   0  0  0  0  0  2  0  0  0  0  0  0
   -3.6627   -1.3596    0.9894 C   0  0  0  0  0  0  0  0  0  0  0  0
   -4.9017   -2.1014    1.3544 C   0  0  0  0  0  0  0  0  0  0  0  0
   -4.4401   -3.3912    2.0467 C   0  0  0  0  0  0  0  0  0  0  0  0
   -3.7801   -4.3201    1.0515 C   0  0  0  0  0  0  0  0  0  0  0  0
   -2.3303   -4.4563    1.3173 C   0  0  0  0  0  0  0  0  0  0  0  0
   -1.4018   -4.5674    0.3533 C   0  0  0  0  0  0  0  0  0  0  0  0
   -1.8474   -4.5538   -1.0744 C   0  0  0  0  0  0  0  0  0  0  0  0
   -3.1727   -3.8622   -1.1958 C   0  0  0  0  0  0  0  0  0  0  0  0
   -3.2668   -2.6003   -1.5767 C   0  0  0  0  0  0  0  0  0  0  0  0
   -2.2040   -1.7176   -1.9220 C   0  0  0  0  0  0  0  0  0  0  0  0
   -1.8651   -0.5434   -1.4579 C   0  0  0  0  0  0  0  0  0  0  0  0
   -0.6674    0.1456   -2.0512 C   0  0  0  0  0  0  0  0  0  0  0  0
   -0.0115   -0.4358   -2.9948 N   0  0  0  0  0  3  0  0  0  0  0  0
    1.1231    0.1297   -3.6132 C   0  0  0  0  0  0  0  0  0  0  0  0
    1.4262   -0.1381   -4.8632 C   0  0  0  0  0  0  0  0  0  0  0  0
    1.9471    1.0024   -2.8665 N   0  0  0  0  0  0  0  0  0  0  0  0
    3.2466    1.4014   -3.3528 C   0  0  0  0  0  0  0  0  0  0  0  0
    3.9063    2.3316   -2.3569 C   0  0  0  0  0  0  0  0  0  0  0  0
    4.0539    1.6216   -1.0779 C   0  0  0  0  0  0  0  0  0  0  0  0
    5.1710    1.3667   -0.4417 C   0  0  0  0  0  0  0  0  0  0  0  0
    6.5223    1.7707   -0.9311 C   0  0  0  0  0  0  0  0  0  0  0  0
    7.3073    0.5638   -1.1078 N   0  0  0  0  0  0  0  0  0  0  0  0
    6.7596   -0.1844   -2.2000 C   0  0  0  0  0  0  0  0  0  0  0  0
    7.6036   -1.4489   -2.3691 C   0  0  0  0  0  0  0  0  0  0  0  0
    8.9944   -0.9642   -2.6533 C   0  0  0  0  0  0  0  0  0  0  0  0
    9.9672   -1.3226   -1.8053 C   0  0  0  0  0  0  0  0  0  0  0  0
   11.3168   -0.8273   -2.1180 C   0  0  0  0  0  0  0  0  0  0  0  0
   12.3544   -1.1166   -1.3538 C   0  0  0  0  0  0  0  0  0  0  0  0
   -1.7167    2.1654    3.4779 C   0  0  0  0  0  0  0  0  0  0  0  0
   -2.3240    2.0772    4.7127 C   0  0  0  0  0  0  0  0  0  0  0  0
   -1.7722    2.7428    5.8191 C   0  0  0  0  0  0  0  0  0  0  0  0
   -0.6278    3.4801    5.6672 C   0  0  0  0  0  0  0  0  0  0  0  0
   -0.0410    3.5541    4.4318 C   0  0  0  0  0  0  0  0  0  0  0  0
   -0.6021    2.9031    3.4044 N   0  0  0  0  0  0  0  0  0  0  0  0
  1  2  1  0
  2  3  1  0
  3  4  1  0
  4  5  1  0
  5  6  1  0
  5  7  1  0
  7  8  1  0
  8  9  1  0
  9 10  1  0
 10 11  2  0
 11 12  1  0
 12 13  1  0
 12 14  1  0
 14 15  1  0
 15 16  1  0
 16 17  1  0
 17 18  1  0
 18 19  2  3
 19 20  1  0
 20 21  1  0
 21 22  2  3
 22 23  1  0
 23 24  2  3
 24 25  1  0
 25 26  2  3
 26 27  1  0
 27 28  2  0
 27 29  1  0
 29 30  1  0
 30 31  1  0
 31 32  1  0
 32 33  2  3
 33 34  1  0
 34 35  1  0
 35 36  1  0
 36 37  1  0
 37 38  1  0
 38 39  2  3
 39 40  1  0
 40 41  2  0
  7 42  1  1
 42 43  2  0
 43 44  1  0
 44 45  2  0
 45 46  1  0
 46 47  2  0
 12  4  1  0
 10  8  1  0
 24 11  1  0
 47 42  1  0
M  CHG  1  26   1
M  RAD  2  13   3  26   2
M  END
$$$$
