
     RDKit          3D

 20 20  0  0  0  0  0  0  0  0999 V2000
   -0.2811    1.3433    0.7026 C   0  0  0  0  0  0  0  0  0  0  0  0
   -0.6823   -0.0404    1.1930 C   0  0  1  0  0  0  0  0  0  0  0  0
   -1.6829    0.1521    2.3218 C   0  0  0  0  0  0  0  0  0  0  0  0
   -2.7426    1.0597    1.7822 C   0  0  2  0  0  0  0  0  0  0  0  0
   -3.6208    1.3842    2.8172 O   0  0  0  0  0  0  0  0  0  0  0  0
   -3.4395    0.5260    0.5762 C   0  0  2  0  0  0  0  0  0  0  0  0
   -4.6958    0.0810    0.9903 O   0  0  0  0  0  0  0  0  0  0  0  0
   -2.7224   -0.4687   -0.2239 C   0  0  1  0  0  0  0  0  0  0  0  0
   -2.9193   -0.2085   -1.5803 O   0  0  0  0  0  0  0  0  0  0  0  0
   -1.3456   -0.8126    0.1183 C   0  0  1  0  0  0  0  0  0  0  0  0
   -0.4291   -1.0465   -0.9548 N   0  0  0  0  0  0  0  0  0  0  0  0
    0.0387    0.1301   -1.5969 C   0  0  0  0  0  3  0  0  0  0  0  0
    1.4538    0.1357   -2.0084 C   0  0  0  0  0  0  0  0  0  0  0  0
    1.9236    1.3757   -2.6661 C   0  0  0  0  0  0  0  0  0  0  0  0
    2.4234   -0.5934   -1.1740 C   0  0  0  0  0  3  0  0  0  0  0  0
    2.1821   -2.0521   -1.0131 C   0  0  0  0  0  0  0  0  0  0  0  0
    2.8259    0.0678   -0.0395 O   0  0  0  0  0  0  0  0  0  0  0  0
    4.1112    0.6337   -0.1898 C   0  0  1  0  0  0  0  0  0  0  0  0
    4.5322    1.4671    1.3608 S   0  0  0  0  0  0  0  0  0  0  0  0
    5.0706   -0.3538   -0.4157 F   0  0  0  0  0  0  0  0  0  0  0  0
  2  1  1  6
  2  3  1  0
  3  4  1  0
  4  5  1  1
  4  6  1  0
  6  7  1  1
  6  8  1  0
  8  9  1  6
  8 10  1  0
 10 11  1  6
 11 12  1  0
 12 13  1  0
 13 14  1  0
 13 15  1  0
 15 16  1  0
 15 17  1  0
 17 18  1  0
 18 19  1  0
 18 20  1  1
 10  2  1  0
M  RAD  2  12   2  15   2
M  END
$$$$
