
     RDKit          3D

 20 19  0  0  0  0  0  0  0  0999 V2000
   -3.7319    0.1509   -3.0707 O   0  0  0  0  0  0  0  0  0  0  0  0
   -4.2741   -0.1800   -1.8318 C   0  0  0  0  0  0  0  0  0  0  0  0
   -3.2389    0.1606   -0.7919 C   0  0  0  0  0  3  0  0  0  0  0  0
   -3.7018   -0.1476    0.5626 N   0  0  0  0  0  0  0  0  0  0  0  0
   -2.6046    0.1932    1.4548 C   0  0  2  0  0  0  0  0  0  0  0  0
   -2.3928    1.6978    1.2895 C   0  0  0  0  0  0  0  0  0  0  0  0
   -2.0696    2.0174   -0.0391 O   0  0  0  0  0  0  0  0  0  0  0  0
   -1.3879   -0.5513    0.9889 C   0  0  1  0  0  0  0  0  0  0  0  0
   -0.9787   -0.2674   -0.2897 O   0  0  0  0  0  0  0  0  0  0  0  0
   -0.3113   -0.6567    2.0112 C   0  0  2  0  0  0  0  0  0  0  0  0
    0.3841    0.5239    2.1025 O   0  0  0  0  0  0  0  0  0  0  0  0
    0.5265   -1.8298    1.7348 C   0  0  0  0  0  0  0  0  0  0  0  0
    1.8326   -1.6865    1.5916 C   0  0  0  0  0  0  0  0  0  0  0  0
    2.4651   -0.3679    1.7035 C   0  0  0  0  0  0  0  0  0  0  0  0
    3.1248   -0.0005    0.5587 O   0  0  0  0  0  0  0  0  0  0  0  0
    2.2426    0.0483   -0.5074 C   0  0  0  0  0  3  0  0  0  0  0  0
    2.9075    0.8075   -1.6356 C   0  0  2  0  0  0  0  0  0  0  0  0
    2.0360    0.9157   -2.8524 C   0  0  0  0  0  0  0  0  0  0  0  0
    4.2439    0.2611   -1.9297 C   0  0  0  0  0  0  0  0  0  0  0  0
    4.9285   -0.2227   -1.0498 O   0  0  0  0  0  0  0  0  0  0  0  0
  1  2  1  0
  2  3  1  0
  3  4  1  0
  4  5  1  0
  5  6  1  6
  6  7  1  0
  5  8  1  0
  8  9  1  6
  8 10  1  0
 10 11  1  6
 10 12  1  0
 12 13  2  3
 13 14  1  0
 14 15  1  0
 15 16  1  0
 16 17  1  0
 17 18  1  6
 17 19  1  0
 19 20  2  0
M  RAD  2   3   2  16   2
M  END
$$$$
