
     RDKit          2D

 20 22  0  0  0  0  0  0  0  0999 V2000
   -3.9759    4.4021    0.0000 C   0  0  0  0  0  0  0  0  0  0  0  0
   -2.4926    4.6257    0.0000 O   0  0  0  0  0  0  0  0  0  0  0  0
   -1.5574    3.4529    0.0000 C   0  0  0  0  0  0  0  0  0  0  0  0
   -2.2082    2.1015    0.0000 C   0  0  0  0  0  0  0  0  0  0  0  0
   -3.1435    3.2742    0.0000 C   0  0  0  0  0  0  0  0  0  0  0  0
   -2.5954    4.6705    0.0000 C   0  0  0  0  0  0  0  0  0  0  0  0
   -1.1122    4.8941    0.0000 C   0  0  0  0  0  0  0  0  0  0  0  0
   -0.0950    3.7867    0.0000 C   0  0  0  0  0  0  0  0  0  0  0  0
    1.0777    2.8515    0.0000 C   0  0  0  0  0  0  0  0  0  0  0  0
    1.0777    1.3515    0.0000 C   0  0  0  0  0  0  0  0  0  0  0  0
    1.7286    0.0000    0.0000 C   0  0  0  0  0  0  0  0  0  0  0  0
    1.0777   -1.3515    0.0000 C   0  0  0  0  0  0  0  0  0  0  0  0
   -0.3846   -1.6852    0.0000 C   0  0  0  0  0  0  0  0  0  0  0  0
   -1.5574   -0.7500    0.0000 C   0  0  0  0  0  0  0  0  0  0  0  0
   -1.5574    0.7500    0.0000 C   0  0  0  0  0  0  0  0  0  0  0  0
   -0.3846    1.6852    0.0000 C   0  0  0  0  0  0  0  0  0  0  0  0
   -0.7184    3.1476    0.0000 C   0  0  0  0  0  0  0  0  0  0  0  0
    0.3812    4.1679    0.0000 C   0  0  0  0  0  0  0  0  0  0  0  0
    0.0474    5.6303    0.0000 C   0  0  0  0  0  0  0  0  0  0  0  0
    1.1469    6.6505    0.0000 O   0  0  0  0  0  0  0  0  0  0  0  0
  1  2  1  0
  2  3  1  0
  3  4  2  0
  4  5  1  0
  5  6  2  0
  6  7  1  0
  7  8  2  0
  8  9  1  0
  9 10  1  0
 10 11  1  0
 11 12  1  0
 12 13  1  0
 13 14  1  0
 14 15  1  0
 10 16  2  0
 16 17  1  0
 17 18  1  0
 18 19  1  0
 19 20  2  0
  8  3  1  0
 15  4  1  0
 16 15  1  0
M  END
$$$$
