
     RDKit          3D

 10 10  0  0  0  0  0  0  0  0999 V2000
    0.1843   -0.9742    1.6995 C   0  0  0  0  0  0  0  0  0  0  0  0
   -0.9558   -1.7531    1.6388 O   0  0  0  0  0  0  0  0  0  0  0  0
   -2.1862   -1.3366    1.2075 C   0  0  0  0  0  0  0  0  0  0  0  0
   -2.2526    0.1198    0.5480 S   0  0  0  0  0  0  0  0  0  0  0  0
   -0.7136    0.9734    0.4845 N   0  0  0  0  0  0  0  0  0  0  0  0
    0.3296    0.0151    0.5832 C   0  0  2  0  0  0  0  0  0  0  0  0
    0.5349   -0.6305   -0.7644 C   0  0  0  0  0  0  0  0  0  0  0  0
    0.6696    0.4280   -1.7416 N   0  0  0  0  0  0  0  0  0  0  0  0
    1.7184    1.2730   -1.8021 C   0  0  0  0  0  0  0  0  0  0  0  0
    2.6714    2.0140   -1.8535 N   0  0  0  0  0  0  0  0  0  0  0  0
  1  2  1  0
  2  3  1  0
  3  4  2  0
  4  5  1  0
  5  6  1  0
  6  7  1  6
  7  8  1  0
  8  9  1  0
  9 10  3  0
  6  1  1  0
M  END
$$$$
