
     RDKit          2D

 72 72  0  0  0  0  0  0  0  0999 V2000
    2.1929    0.0000    0.0000 O   0  0  0  0  0  0  0  0  0  0  0  0
    1.6798    1.4095    0.0000 C   0  0  0  0  0  0  0  0  0  0  0  0
    0.3808    2.1595    0.0000 C   0  0  0  0  0  3  0  0  0  0  0  0
   -1.0964    1.8991    0.0000 N   0  0  0  0  0  0  0  0  0  0  0  0
   -2.0606    0.7500    0.0000 C   0  0  0  0  0  0  0  0  0  0  0  0
   -3.4701    1.2630    0.0000 C   0  0  0  0  0  0  0  0  0  0  0  0
   -3.7306    2.7402    0.0000 O   0  0  0  0  0  0  0  0  0  0  0  0
   -2.0606   -0.7500    0.0000 C   0  0  0  0  0  0  0  0  0  0  0  0
   -3.4701   -1.2630    0.0000 O   0  0  0  0  0  0  0  0  0  0  0  0
   -1.0964   -1.8991    0.0000 C   0  0  0  0  0  0  0  0  0  0  0  0
   -1.8464   -3.1981    0.0000 O   0  0  0  0  0  0  0  0  0  0  0  0
    0.3808   -2.1595    0.0000 C   0  0  0  0  0  3  0  0  0  0  0  0
    1.6798   -1.4095    0.0000 C   0  0  0  0  0  0  0  0  0  0  0  0
    2.8289   -2.3737    0.0000 C   0  0  0  0  0  0  0  0  0  0  0  0
    2.5684   -3.8509    0.0000 O   0  0  0  0  0  0  0  0  0  0  0  0
    3.7175   -4.8151    0.0000 C   0  0  0  0  0  0  0  0  0  0  0  0
    5.1270   -4.3021    0.0000 O   0  0  0  0  0  0  0  0  0  0  0  0
    3.4570   -6.2923    0.0000 C   0  0  0  0  0  0  0  0  0  0  0  0
    4.6061   -7.2565    0.0000 O   0  0  0  0  0  0  0  0  0  0  0  0
    2.0475   -6.8054    0.0000 S   0  0  0  0  0  0  0  0  0  0  0  0
    1.7870   -8.2826    0.0000 C   0  0  0  0  0  0  0  0  0  0  0  0
    0.3775   -8.7956    0.0000 O   0  0  0  0  0  0  0  0  0  0  0  0
    0.1170  -10.2728    0.0000 C   0  0  0  0  0  0  0  0  0  0  0  0
    1.2661  -11.2370    0.0000 O   0  0  0  0  0  0  0  0  0  0  0  0
   -1.2925  -10.7858    0.0000 C   0  0  0  0  0  0  0  0  0  0  0  0
   -1.5530  -12.2631    0.0000 C   0  0  0  0  0  3  0  0  0  0  0  0
   -2.9626  -12.7761    0.0000 O   0  0  0  0  0  0  0  0  0  0  0  0
   -3.2230  -14.2533    0.0000 C   0  0  0  0  0  0  0  0  0  0  0  0
   -2.0740  -15.2175    0.0000 O   0  0  0  0  0  0  0  0  0  0  0  0
   -4.6326  -14.7663    0.0000 C   0  0  0  0  0  0  0  0  0  0  0  0
   -5.7816  -13.8021    0.0000 O   0  0  0  0  0  0  0  0  0  0  0  0
   -4.8930  -16.2435    0.0000 C   0  0  0  0  0  0  0  0  0  0  0  0
   -6.3026  -16.7566    0.0000 O   0  0  0  0  0  0  0  0  0  0  0  0
   -3.7440  -17.2077    0.0000 O   0  0  0  0  0  0  0  0  0  0  0  0
   -4.0044  -18.6849    0.0000 C   0  0  0  0  0  0  0  0  0  0  0  0
   -2.8554  -19.6491    0.0000 C   0  0  0  0  0  0  0  0  0  0  0  0
   -3.1159  -21.1263    0.0000 O   0  0  0  0  0  0  0  0  0  0  0  0
   -1.9668  -22.0905    0.0000 C   0  0  0  0  0  3  0  0  0  0  0  0
   -2.2273  -23.5677    0.0000 C   0  0  0  0  0  3  0  0  0  0  0  0
   -1.0782  -24.5319    0.0000 C   0  0  0  0  0  3  0  0  0  0  0  0
   -1.3387  -26.0091    0.0000 C   0  0  0  0  0  0  0  0  0  0  0  0
   -0.1896  -26.9733    0.0000 O   0  0  0  0  0  0  0  0  0  0  0  0
   -5.4140  -19.1980    0.0000 O   0  0  0  0  0  0  0  0  0  0  0  0
   -5.6745  -20.6752    0.0000 C   0  0  0  0  0  3  0  0  0  0  0  0
   -7.0840  -21.1882    0.0000 C   0  0  0  0  0  0  0  0  0  0  0  0
   -7.3445  -22.6654    0.0000 O   0  0  0  0  0  0  0  0  0  0  0  0
   -8.2331  -20.2240    0.0000 O   0  0  0  0  0  0  0  0  0  0  0  0
   -9.6426  -20.7370    0.0000 C   0  0  0  0  0  3  0  0  0  0  0  0
  -10.7917  -19.7729    0.0000 C   0  0  0  0  0  0  0  0  0  0  0  0
  -12.2012  -20.2859    0.0000 C   0  0  0  0  0  0  0  0  0  0  0  0
  -12.4617  -21.7631    0.0000 O   0  0  0  0  0  0  0  0  0  0  0  0
  -13.3503  -19.3217    0.0000 C   0  0  0  0  0  0  0  0  0  0  0  0
  -14.7598  -19.8347    0.0000 C   0  0  0  0  0  3  0  0  0  0  0  0
  -15.9089  -18.8706    0.0000 O   0  0  0  0  0  0  0  0  0  0  0  0
  -17.3184  -19.3836    0.0000 C   0  0  0  0  0  3  0  0  0  0  0  0
  -18.4675  -18.4194    0.0000 C   0  0  0  0  0  3  0  0  0  0  0  0
  -19.8770  -18.9324    0.0000 C   0  0  0  0  0  3  0  0  0  0  0  0
  -21.0261  -17.9683    0.0000 C   0  0  0  0  0  0  0  0  0  0  0  0
  -22.4356  -18.4813    0.0000 C   0  0  0  0  0  3  0  0  0  0  0  0
  -23.5847  -17.5171    0.0000 C   0  0  0  0  0  0  0  0  0  0  0  0
  -24.9942  -18.0301    0.0000 C   0  0  0  0  0  0  0  0  0  0  0  0
  -26.1433  -17.0660    0.0000 C   0  0  0  0  0  3  0  0  0  0  0  0
  -27.5528  -17.5790    0.0000 O   0  0  0  0  0  0  0  0  0  0  0  0
  -28.7019  -16.6148    0.0000 C   0  0  0  0  0  0  0  0  0  0  0  0
  -30.1115  -17.1278    0.0000 O   0  0  0  0  0  0  0  0  0  0  0  0
  -31.2605  -16.1637    0.0000 C   0  0  0  0  0  0  0  0  0  0  0  0
  -32.6701  -16.6767    0.0000 O   0  0  0  0  0  0  0  0  0  0  0  0
  -13.0898  -17.8445    0.0000 C   0  0  0  0  0  0  0  0  0  0  0  0
  -14.2389  -16.8803    0.0000 O   0  0  0  0  0  0  0  0  0  0  0  0
  -13.9784  -15.4031    0.0000 C   0  0  0  0  0  3  0  0  0  0  0  0
  -15.1275  -14.4389    0.0000 O   0  0  0  0  0  0  0  0  0  0  0  0
  -14.8670  -12.9617    0.0000 S   0  0  0  0  0  0  0  0  0  0  0  0
  1  2  1  0
  2  3  1  0
  3  4  1  0
  4  5  1  0
  5  6  1  1
  6  7  1  0
  5  8  1  0
  8  9  1  6
  8 10  1  0
 10 11  1  1
 10 12  1  0
 12 13  1  0
 13 14  1  1
 14 15  1  0
 15 16  1  0
 16 17  1  1
 16 18  1  0
 18 19  1  0
 18 20  1  0
 20 21  1  0
 21 22  1  0
 22 23  1  0
 23 24  1  1
 23 25  1  0
 25 26  1  0
 26 27  1  0
 27 28  1  0
 28 29  1  1
 28 30  1  0
 30 31  1  0
 30 32  1  0
 32 33  1  1
 32 34  1  0
 34 35  1  0
 35 36  1  1
 36 37  1  0
 37 38  1  0
 38 39  1  0
 39 40  1  0
 40 41  1  0
 41 42  1  0
 35 43  1  0
 43 44  1  0
 44 45  1  0
 45 46  1  6
 45 47  1  0
 47 48  1  0
 48 49  1  0
 49 50  1  0
 50 51  1  1
 50 52  1  0
 52 53  1  6
 53 54  1  0
 54 55  1  0
 55 56  1  0
 56 57  1  0
 57 58  1  0
 58 59  1  0
 59 60  1  0
 60 61  1  0
 61 62  1  0
 62 63  1  0
 63 64  1  0
 64 65  1  0
 65 66  1  0
 66 67  2  0
 52 68  1  0
 68 69  1  0
 69 70  1  0
 70 71  1  0
 71 72  1  0
 13  1  1  0
M  RAD  8   3   2  12   2  26   2  38   2  39   2  40   2  44   2  48   2
M  RAD  7  53   2  55   2  56   2  57   2  59   2  62   2  70   2
M  END
$$$$
