
     RDKit          3D

 52 56  0  0  0  0  0  0  0  0999 V2000
   -6.6447    1.8655   -4.2975 C   0  0  0  0  0  0  0  0  0  0  0  0
   -6.8280    1.1184   -3.2281 C   0  0  0  0  0  0  0  0  0  0  0  0
   -7.7683    0.0035   -3.4599 C   0  0  0  0  0  0  0  0  0  0  0  0
   -9.1014    0.3568   -2.8787 C   0  0  0  0  0  0  0  0  0  0  0  0
   -9.1336    0.0238   -1.4037 C   0  0  0  0  0  3  0  0  0  0  0  0
   -9.2106    1.2635   -0.5458 C   0  0  0  0  0  0  0  0  0  0  0  0
  -10.4148    2.0737   -1.0185 C   0  0  0  0  0  0  0  0  0  0  0  0
   -9.4668    0.8389    0.8798 C   0  0  0  0  0  0  0  0  0  0  0  0
   -7.9865    2.1196   -0.6120 C   0  0  0  0  0  0  0  0  0  0  0  0
   -7.4997    2.5370    0.7459 C   0  0  0  0  0  0  0  0  0  0  0  0
   -6.1086    2.0550    0.3868 C   0  0  0  0  0  0  0  0  0  0  0  0
   -6.7241    1.2836   -0.7709 C   0  0  1  0  0  0  0  0  0  0  0  0
   -6.9580   -0.1705   -0.4653 C   0  0  0  0  0  0  0  0  0  0  0  0
   -6.0417    1.5905   -2.0689 C   0  0  0  0  0  0  0  0  0  0  0  0
   -4.6797    0.9648   -2.0734 C   0  0  0  0  0  0  0  0  0  0  0  0
   -3.9128    1.4468   -0.9215 C   0  0  0  0  0  0  0  0  0  0  0  0
   -3.4161    0.6789    0.0219 C   0  0  0  0  0  0  0  0  0  0  0  0
   -2.6669    1.2249    1.1308 C   0  0  0  0  0  0  0  0  0  0  0  0
   -2.4734    2.4604    1.2147 O   0  0  0  0  0  0  0  0  0  0  0  0
   -3.6463   -0.8064   -0.0538 C   0  0  0  0  0  0  0  0  0  0  0  0
   -2.3176   -1.4243   -0.1944 C   0  0  0  0  0  0  0  0  0  0  0  0
   -1.8007   -1.5042   -1.2885 O   0  0  0  0  0  0  0  0  0  0  0  0
   -1.6041   -1.9496    0.9848 C   0  0  0  0  0  3  0  0  0  0  0  0
   -0.6720   -0.8238    1.4683 C   0  0  0  0  0  0  0  0  0  0  0  0
    0.1787   -0.4613    0.3180 C   0  0  0  0  0  0  0  0  0  0  0  0
    1.4680   -0.5874    0.3761 C   0  0  0  0  0  0  0  0  0  0  0  0
    2.1613   -1.0671    1.5050 N   0  0  0  0  0  0  0  0  0  0  0  0
    1.8862   -2.3504    2.0477 C   0  0  0  0  0  0  0  0  0  0  0  0
    1.2580   -2.4520    3.3638 C   0  0  0  0  0  0  0  0  0  0  0  0
    1.9054   -1.9050    4.5520 C   0  0  0  0  0  0  0  0  0  0  0  0
    2.2394   -0.5285    4.7284 C   0  0  0  0  0  0  0  0  0  0  0  0
    3.3013   -0.7822    5.4068 C   0  0  0  0  0  0  0  0  0  0  0  0
    3.0006   -2.2966    5.2245 C   0  0  0  0  0  0  0  0  0  0  0  0
    3.5127   -2.5261    6.5396 C   0  0  0  0  0  3  0  0  0  0  0  0
    4.5022   -1.3268    6.1893 C   0  0  0  0  0  0  0  0  0  0  0  0
    3.1745   -0.2147    2.0729 C   0  0  0  0  0  0  0  0  0  0  0  0
    4.5101   -0.9122    1.7437 C   0  0  0  0  0  0  0  0  0  0  0  0
    4.6307   -1.0313    0.2353 C   0  0  0  0  0  0  0  0  0  0  0  0
    4.5980    0.3470   -0.4112 C   0  0  0  0  0  0  0  0  0  0  0  0
    5.9964   -1.6769   -0.0410 C   0  0  1  0  0  0  0  0  0  0  0  0
    5.9822   -3.0445    0.6562 C   0  0  0  0  0  2  0  0  0  0  0  0
    5.9827   -1.9841   -1.5022 C   0  0  0  0  0  0  0  0  0  0  0  0
    6.9181   -1.6163   -2.3476 C   0  0  0  0  0  0  0  0  0  0  0  0
    7.1160   -1.8006   -3.8066 C   0  0  0  0  0  0  0  0  0  0  0  0
    8.3305   -0.8950   -3.8020 C   0  0  0  0  0  0  0  0  0  0  0  0
    8.1775   -0.8751   -2.2934 C   0  0  0  0  0  3  0  0  0  0  0  0
    8.1321    0.5282   -1.7439 C   0  0  2  0  0  0  0  0  0  0  0  0
    7.9872    0.5190   -0.2588 C   0  0  0  0  0  0  0  0  0  0  0  0
    7.1960    1.3289   -2.3941 O   0  0  0  0  0  0  0  0  0  0  0  0
    7.2404    2.5906   -1.8083 C   0  0  0  0  0  3  0  0  0  0  0  0
    7.1553    3.7079   -2.8239 C   0  0  0  0  0  0  0  0  0  0  0  0
    8.5352    4.0857   -3.2788 C   0  0  0  0  0  2  0  0  0  0  0  0
  1  2  2  0
  2  3  1  0
  3  4  1  0
  4  5  1  0
  5  6  1  0
  6  7  1  0
  6  8  1  0
  6  9  1  0
  9 10  1  0
 10 11  1  0
 11 12  1  0
 12 13  1  1
 12 14  1  0
 14 15  1  0
 15 16  1  0
 16 17  2  0
 17 18  1  0
 18 19  2  0
 17 20  1  0
 20 21  1  0
 21 22  2  0
 21 23  1  0
 23 24  1  0
 24 25  1  0
 25 26  2  3
 26 27  1  0
 27 28  1  0
 28 29  1  0
 29 30  1  0
 30 31  1  0
 31 32  2  0
 32 33  1  0
 33 34  1  0
 34 35  1  0
 27 36  1  0
 36 37  1  0
 37 38  1  0
 38 39  1  0
 38 40  1  0
 40 41  1  1
 40 42  1  0
 42 43  2  3
 43 44  1  0
 44 45  1  0
 45 46  1  0
 46 47  1  0
 47 48  1  1
 47 49  1  0
 49 50  1  0
 50 51  1  0
 51 52  1  0
 14  2  1  0
 12  9  1  0
 33 30  1  0
 35 32  1  0
 46 43  1  0
M  RAD  7   5   2  23   2  34   2  41   3  46   2  50   2  52   3
M  END
$$$$
