
     RDKit          3D

 29 29  0  0  0  0  0  0  0  0999 V2000
    9.0850   -1.4189   -0.1958 O   0  0  0  0  0  0  0  0  0  0  0  0
    8.8653   -0.3234   -0.5804 N   0  0  0  0  0  3  0  0  0  0  0  0
    7.5056    0.1092   -0.7382 C   0  0  0  0  0  0  0  0  0  0  0  0
    7.0601    0.6611    0.5681 C   0  0  0  0  0  0  0  0  0  0  0  0
    6.0254    0.1373    1.2236 C   0  0  0  0  0  0  0  0  0  0  0  0
    5.2803   -1.0202    0.6677 C   0  0  0  0  0  0  0  0  0  0  0  0
    3.8082   -0.6442    0.4510 C   0  0  1  0  0  0  0  0  0  0  0  0
    3.8418    0.5292   -0.5384 C   0  0  0  0  0  0  0  0  0  0  0  0
    3.1567   -1.8301   -0.2114 C   0  0  0  0  0  0  0  0  0  0  0  0
    1.7063   -1.6393   -0.5002 C   0  0  0  0  0  3  0  0  0  0  0  0
    1.1969   -0.4207   -0.1190 O   0  0  0  0  0  0  0  0  0  0  0  0
    1.0156    0.4773   -1.1402 C   0  0  0  0  0  3  0  0  0  0  0  0
    0.4937    1.7646   -0.6806 C   0  0  0  0  0  0  0  0  0  0  0  0
    1.1908    2.4840    0.3999 C   0  0  0  0  0  0  0  0  0  0  0  0
   -0.9722    1.8783   -0.7294 C   0  0  0  0  0  0  0  0  0  0  0  0
   -1.6461    0.8562    0.1142 C   0  0  2  0  0  0  0  0  0  0  0  0
   -1.3829   -0.4412   -0.2403 O   0  0  0  0  0  0  0  0  0  0  0  0
   -2.5454   -1.1424   -0.5578 C   0  0  0  0  0  0  0  0  0  0  0  0
   -3.2537   -0.5466   -1.7410 C   0  0  0  0  0  0  0  0  0  0  0  0
   -4.7227   -0.4092   -1.4914 C   0  0  1  0  0  0  0  0  0  0  0  0
   -5.4200   -1.7018   -1.2201 C   0  0  0  0  0  0  0  0  0  0  0  0
   -6.8879   -1.4010   -0.9891 C   0  0  0  0  0  3  0  0  0  0  0  0
   -7.1723   -0.0450   -1.0904 O   0  0  0  0  0  0  0  0  0  0  0  0
   -5.0887    0.6986   -0.5599 C   0  0  0  0  0  3  0  0  0  0  0  0
   -5.2375    0.2871    0.8621 C   0  0  1  0  0  0  0  0  0  0  0  0
   -4.9212   -1.1435    1.1407 C   0  0  0  0  0  0  0  0  0  0  0  0
   -4.6495    1.2522    1.8471 C   0  0  0  0  0  0  0  0  0  0  0  0
   -3.3407    1.8397    1.3483 C   0  0  0  0  0  3  0  0  0  0  0  0
   -2.9907    1.1527    0.1954 O   0  0  0  0  0  0  0  0  0  0  0  0
  1  2  2  0
  2  3  1  0
  3  4  1  0
  4  5  2  0
  5  6  1  0
  6  7  1  0
  7  8  1  6
  7  9  1  0
  9 10  1  0
 10 11  1  0
 11 12  1  0
 12 13  1  0
 13 14  1  0
 13 15  1  0
 16 15  1  6
 16 17  1  0
 17 18  1  0
 18 19  1  0
 19 20  1  0
 20 21  1  1
 21 22  1  0
 22 23  1  0
 20 24  1  0
 24 25  1  0
 25 26  1  6
 25 27  1  0
 27 28  1  0
 28 29  1  0
 29 16  1  0
M  CHG  1   2   1
M  RAD  6   2   2  10   2  12   2  22   2  24   2  28   2
M  END
$$$$
