
     RDKit          3D

 24 26  0  0  0  0  0  0  0  0999 V2000
   -3.5288   -3.1185    0.4490 O   0  0  0  0  0  0  0  0  0  0  0  0
   -2.4472   -2.1972   -0.0915 P   0  0  0  0  0  0  0  0  0  0  0  0
   -1.3241   -1.9932    1.1536 O   0  0  0  0  0  0  0  0  0  0  0  0
   -1.6991   -2.8733   -1.4364 O   0  0  0  0  0  0  0  0  0  0  0  0
   -3.1814   -0.7354   -0.5052 O   0  0  0  0  0  0  0  0  0  0  0  0
   -4.0906   -0.3222    0.4610 C   0  0  0  0  0  3  0  0  0  0  0  0
   -3.6088    0.9629    1.0864 C   0  0  0  0  0  3  0  0  0  0  0  0
   -3.9446    2.1617    0.2438 C   0  0  0  0  0  0  0  0  0  0  0  0
   -2.7958    3.1290    0.1671 C   0  0  0  0  0  0  0  0  0  0  0  0
   -2.2490    3.1891   -1.2536 C   0  0  0  0  0  0  0  0  0  0  0  0
   -1.3313    1.9823   -1.4018 C   0  0  0  0  0  3  0  0  0  0  0  0
   -0.2011    2.1375   -0.4306 C   0  0  0  0  0  0  0  0  0  0  0  0
    0.3672    0.8537    0.0704 C   0  0  0  0  0  0  0  0  0  0  0  0
    1.1542    0.1751   -0.8303 O   0  0  0  0  0  0  0  0  0  0  0  0
   -0.5106    0.0642    0.7770 O   0  0  0  0  0  0  0  0  0  0  0  0
   -0.2260   -1.3011    0.6322 C   0  0  1  0  0  0  0  0  0  0  0  0
    0.8697   -1.6408    1.4394 O   0  0  0  0  0  0  0  0  0  0  0  0
    1.9483   -1.8598    0.7319 O   0  0  0  0  0  0  0  0  0  0  0  0
    2.5157   -0.4479   -0.0236 P   0  0  0  0  0  0  0  0  0  0  0  0
    3.9355   -0.5726   -0.9396 O   0  0  0  0  0  0  0  0  0  0  0  0
    3.5908    0.5527    0.8228 O   0  0  0  0  0  0  0  0  0  0  0  0
    4.4406    0.5537   -0.2781 C   0  0  0  0  0  0  0  0  0  0  0  0
    5.7846    0.3339    0.0118 O   0  0  0  0  0  0  0  0  0  0  0  0
    6.5318    0.9663   -0.8788 O   0  0  0  0  0  0  0  0  0  0  0  0
  1  2  2  0
  2  3  1  0
  2  4  1  0
  2  5  1  0
  5  6  1  0
  6  7  1  0
  7  8  1  0
  8  9  1  0
  9 10  1  0
 10 11  1  0
 11 12  1  0
 12 13  1  0
 13 14  1  0
 13 15  1  0
 15 16  1  0
 16 17  1  1
 17 18  1  0
 18 19  1  0
 19 20  1  0
 19 21  1  0
 21 22  1  0
 22 23  1  0
 23 24  1  0
 16  3  1  0
 19 14  1  0
 22 20  1  0
M  RAD  3   6   2   7   2  11   2
M  END
$$$$
