
     RDKit          3D

 24 25  0  0  0  0  0  0  0  0999 V2000
    2.7797    0.0176   -2.5474 C   0  0  0  0  0  0  0  0  0  0  0  0
    3.1238   -0.8475   -1.3713 C   0  0  1  0  0  0  0  0  0  0  0  0
    4.4589   -0.5731   -0.7683 C   0  0  0  0  0  0  0  0  0  0  0  0
    4.4506    0.3733    0.3865 C   0  0  2  0  0  0  0  0  0  0  0  0
    5.6121    0.2232    1.1525 O   0  0  0  0  0  0  0  0  0  0  0  0
    3.2874    0.2086    1.3176 C   0  0  2  0  0  0  0  0  0  0  0  0
    3.3034   -0.9760    2.0304 O   0  0  0  0  0  0  0  0  0  0  0  0
    2.0211    0.2899    0.4742 C   0  0  1  0  0  0  0  0  0  0  0  0
    2.2174    1.3709   -0.3998 O   0  0  0  0  0  0  0  0  0  0  0  0
    2.0227   -0.9812   -0.3675 C   0  0  1  0  0  0  0  0  0  0  0  0
    0.4107   -1.0512   -1.1924 S   0  0  0  0  0  0  0  0  0  0  0  0
   -0.8049   -0.4935    0.0368 C   0  0  1  0  0  0  0  0  0  0  0  0
   -1.0222    1.0130   -0.0404 C   0  0  0  0  0  0  0  0  0  0  0  0
   -2.3852    1.2650    0.5939 C   0  0  1  0  0  0  0  0  0  0  0  0
   -2.4636    0.3955    1.6911 O   0  0  0  0  0  0  0  0  0  0  0  0
   -2.5329    2.6812    1.0745 C   0  0  0  0  0  0  0  0  0  0  0  0
   -3.1110    2.6970    2.3411 O   0  0  0  0  0  0  0  0  0  0  0  0
   -3.4429    0.8928   -0.4386 C   0  0  1  0  0  0  0  0  0  0  0  0
   -3.4969    1.9122   -1.3853 O   0  0  0  0  0  0  0  0  0  0  0  0
   -2.9413   -0.3640   -1.1403 C   0  0  0  0  0  0  0  0  0  0  0  0
   -4.0659   -1.1904   -1.6998 C   0  0  0  0  0  2  0  0  0  0  0  0
   -2.1441   -1.1384   -0.1349 C   0  0  1  0  0  0  0  0  0  0  0  0
   -2.0970   -2.4961   -0.3704 O   0  0  0  0  0  0  0  0  0  0  0  0
   -3.1801   -3.2289    0.7578 S   0  0  0  0  0  0  0  0  0  0  0  0
  2  1  1  6
  2  3  1  0
  3  4  1  0
  4  5  1  1
  4  6  1  0
  6  7  1  6
  6  8  1  0
  8  9  1  6
  8 10  1  0
 10 11  1  6
 12 11  1  6
 12 13  1  0
 13 14  1  0
 14 15  1  1
 14 16  1  0
 16 17  1  0
 14 18  1  0
 18 19  1  6
 18 20  1  0
 20 21  1  0
 20 22  1  0
 22 23  1  6
 23 24  1  0
 10  2  1  0
 22 12  1  0
M  RAD  1  21   3
M  END
$$$$
