
     RDKit          3D

 30 29  0  0  0  0  0  0  0  0999 V2000
   -8.3995    0.4120    3.0020 C   0  0  0  0  0  0  0  0  0  0  0  0
   -8.2959   -0.6301    1.9016 C   0  0  0  0  0  0  0  0  0  0  0  0
   -9.6770   -0.9817    1.3762 C   0  0  0  0  0  0  0  0  0  0  0  0
   -7.5337   -0.0026    0.7667 C   0  0  0  0  0  0  0  0  0  0  0  0
   -6.1601    0.3871    1.3011 C   0  0  0  0  0  0  0  0  0  0  0  0
   -5.3759    1.0208    0.1750 C   0  0  0  0  0  0  0  0  0  0  0  0
   -5.2273    0.0162   -0.9745 C   0  0  1  0  0  0  0  0  0  0  0  0
   -6.5859   -0.3977   -1.4945 C   0  0  0  0  0  0  0  0  0  0  0  0
   -4.4807    0.7824   -2.0744 C   0  0  2  0  0  0  0  0  0  0  0  0
   -4.3176   -0.1846   -3.2270 C   0  0  0  0  0  2  0  0  0  0  0  0
   -3.1523    1.1889   -1.4898 C   0  0  0  0  0  0  0  0  0  0  0  0
   -2.3173    0.0198   -1.0495 C   0  0  0  0  0  0  0  0  0  0  0  0
   -2.9694   -0.8236    0.0038 C   0  0  0  0  0  0  0  0  0  0  0  0
   -1.7965   -0.7901   -2.2100 C   0  0  0  0  0  0  0  0  0  0  0  0
   -0.9468    0.1351   -3.0566 C   0  0  0  0  0  3  0  0  0  0  0  0
    0.4278    0.1569   -2.6741 N   0  0  0  0  0  0  0  0  0  0  0  0
    0.7530    1.2094   -1.7336 C   0  0  0  0  0  3  0  0  0  0  0  0
    1.0525    0.5187   -0.3981 C   0  0  0  0  0  0  0  0  0  0  0  0
    2.5579    0.2336   -0.4268 C   0  0  0  0  0  0  0  0  0  0  0  0
    2.7892   -0.6707   -1.6364 C   0  0  0  0  0  0  0  0  0  0  0  0
    2.8664   -0.5177    0.8498 C   0  0  0  0  0  0  0  0  0  0  0  0
    4.3098   -0.8752    0.9779 C   0  0  0  0  0  0  0  0  0  0  0  0
    4.8304   -1.7457   -0.1182 C   0  0  0  0  0  0  0  0  0  0  0  0
    5.1330    0.2105    1.2568 O   0  0  0  0  0  0  0  0  0  0  0  0
    6.3640   -0.2644    1.3389 O   0  0  0  0  0  0  0  0  0  0  0  0
    7.2664    0.7430    1.0096 C   0  0  0  0  0  0  0  0  0  0  0  0
    8.6550    0.1564    1.1169 C   0  0  0  0  0  0  0  0  0  0  0  0
    8.8440   -0.3085    2.5373 C   0  0  0  0  0  0  0  0  0  0  0  0
   10.2469   -0.8995    2.6394 C   0  0  0  0  0  0  0  0  0  0  0  0
   11.1397    0.1033    2.3103 F   0  0  0  0  0  0  0  0  0  0  0  0
  1  2  1  0
  2  3  1  0
  2  4  1  0
  4  5  1  0
  5  6  1  0
  6  7  1  0
  7  8  1  6
  7  9  1  0
  9 10  1  6
  9 11  1  0
 11 12  1  0
 12 13  1  0
 12 14  1  0
 14 15  1  0
 15 16  1  0
 16 17  1  0
 17 18  1  0
 18 19  1  0
 19 20  1  0
 19 21  1  0
 21 22  1  0
 22 23  1  0
 22 24  1  0
 24 25  1  0
 25 26  1  0
 26 27  1  0
 27 28  1  0
 28 29  1  0
 29 30  1  0
M  RAD  3  10   3  15   2  17   2
M  END
$$$$
