
     RDKit          3D

 22 22  0  0  0  0  0  0  0  0999 V2000
   -3.4484    2.3331   -3.1038 C   0  0  0  0  0  0  0  0  0  0  0  0
   -4.0975    1.2367   -2.3761 C   0  0  0  0  0  0  0  0  0  0  0  0
   -3.4513    0.4650   -1.4875 C   0  0  0  0  0  0  0  0  0  0  0  0
   -2.0482    0.7468   -1.2539 C   0  0  0  0  0  0  0  0  0  0  0  0
   -1.2922    0.0843   -0.4226 C   0  0  0  0  0  0  0  0  0  0  0  0
    0.1244    0.3876   -0.2030 C   0  0  0  0  0  0  0  0  0  0  0  0
    0.8175    1.4919   -0.9237 C   0  0  0  0  0  0  0  0  0  0  0  0
    0.8679   -0.3006    0.6464 C   0  0  0  0  0  0  0  0  0  0  0  0
    2.2777   -0.0044    0.8697 C   0  0  0  0  0  0  0  0  0  0  0  0
    3.0487   -0.6492    1.6909 C   0  0  0  0  0  0  0  0  0  0  0  0
    4.4753   -0.3096    1.8825 C   0  0  0  0  0  0  0  0  0  0  0  0
    5.1386    0.7847    1.1601 C   0  0  0  0  0  0  0  0  0  0  0  0
    5.1937   -1.0159    2.7389 C   0  0  0  0  0  0  0  0  0  0  0  0
    6.5989   -0.7630    2.9982 C   0  0  0  0  0  0  0  0  0  0  0  0
    7.1598    0.1697    2.3812 O   0  0  0  0  0  0  0  0  0  0  0  0
    7.3018   -1.5164    3.8903 O   0  0  0  0  0  0  0  0  0  0  0  0
   -4.1902   -0.6129   -0.7962 C   0  0  0  0  0  0  0  0  0  0  0  0
   -4.9316   -0.0584    0.4086 C   0  0  0  0  0  0  0  0  0  0  0  0
   -3.1886   -1.6194   -0.2500 C   0  0  0  0  0  0  0  0  0  0  0  0
   -5.1471   -1.2974   -1.7093 C   0  0  0  0  0  0  0  0  0  0  0  0
   -5.6631   -0.5120   -2.8447 C   0  0  0  0  0  0  0  0  0  0  0  0
   -5.5460    0.9595   -2.6405 C   0  0  0  0  0  0  0  0  0  0  0  0
  1  2  1  0
  2  3  2  0
  3  4  1  0
  4  5  2  0
  5  6  1  0
  6  7  1  0
  6  8  2  0
  8  9  1  0
  9 10  2  0
 10 11  1  0
 11 12  1  0
 11 13  2  0
 13 14  1  0
 14 15  2  0
 14 16  1  0
  3 17  1  0
 17 18  1  0
 17 19  1  0
 17 20  1  0
 20 21  1  0
 21 22  1  0
 22  2  1  0
M  END
$$$$
