
     RDKit          3D

 27 29  0  0  0  0  0  0  0  0999 V2000
    3.3398    2.8158    0.2465 C   0  0  0  0  0  0  0  0  0  0  0  0
    3.2059    1.5649    0.6043 C   0  0  0  0  0  0  0  0  0  0  0  0
    4.2462    0.5838    0.2153 C   0  0  0  0  0  0  0  0  0  0  0  0
    3.7163   -0.8606    0.2582 C   0  0  0  0  0  0  0  0  0  0  0  0
    2.3310   -0.8265   -0.2112 C   0  0  1  0  0  0  0  0  0  0  0  0
    1.6372   -2.0918   -0.5181 C   0  0  0  0  0  0  0  0  0  0  0  0
    2.2345   -2.7002   -1.7748 C   0  0  0  0  0  0  0  0  0  0  0  0
    1.8932   -3.1002    0.6097 C   0  0  0  0  0  0  0  0  0  0  0  0
    0.1623   -1.9457   -0.6505 C   0  0  0  0  0  0  0  0  0  0  0  0
   -0.4056   -0.6047   -0.8761 C   0  0  0  0  0  0  0  0  0  0  0  0
    0.4214    0.5505   -0.3958 C   0  0  0  0  0  0  0  0  0  0  0  0
    1.3778   -0.0071    0.6607 C   0  0  1  0  0  0  0  0  0  0  0  0
    0.6622   -0.9036    1.6304 C   0  0  0  0  0  0  0  0  0  0  0  0
    2.0637    1.0867    1.3788 C   0  0  0  0  0  0  0  0  0  0  0  0
    1.0768    2.1180    1.8075 C   0  0  0  0  0  0  0  0  0  0  0  0
   -0.1430    2.2206    1.1054 C   0  0  0  0  0  0  0  0  0  0  0  0
   -1.2389    1.8281    0.6711 C   0  0  0  0  0  0  0  0  0  0  0  0
   -2.1873    2.6261   -0.1660 C   0  0  0  0  0  0  0  0  0  0  0  0
   -1.8556    3.7879   -0.4572 O   0  0  0  0  0  0  0  0  0  0  0  0
   -1.8502    0.4767    0.8864 C   0  0  0  0  0  0  0  0  0  0  0  0
   -1.7976   -0.4073   -0.3136 C   0  0  0  0  0  0  0  0  0  0  0  0
   -2.5605    0.1658   -1.3426 O   0  0  0  0  0  0  0  0  0  0  0  0
   -3.8700    0.3956   -0.9402 C   0  0  0  0  0  0  0  0  0  0  0  0
   -2.4002   -1.7481    0.1090 C   0  0  0  0  0  0  0  0  0  0  0  0
   -2.5067   -2.7005   -1.0361 C   0  0  0  0  0  2  0  0  0  0  0  0
   -3.7305   -1.5227    0.7341 C   0  0  0  0  0  0  0  0  0  0  0  0
   -3.8222   -0.8015    1.7230 O   0  0  0  0  0  0  0  0  0  0  0  0
  1  2  2  0
  2  3  1  0
  3  4  1  0
  5  4  1  1
  5  6  1  0
  6  7  1  0
  6  8  1  0
  6  9  1  0
  9 10  1  0
 10 11  1  0
 11 12  1  0
 12 13  1  1
 12 14  1  0
 14 15  1  0
 15 16  1  0
 16 17  2  0
 17 18  1  0
 18 19  2  0
 17 20  1  0
 20 21  1  0
 21 22  1  0
 22 23  1  0
 21 24  1  0
 24 25  1  0
 24 26  1  0
 26 27  2  0
 14  2  1  0
 12  5  1  0
 21 10  1  0
M  RAD  1  25   3
M  END
$$$$
