
     RDKit          3D

 29 30  0  0  0  0  0  0  0  0999 V2000
   -5.5511    1.7531    1.4414 N   0  0  0  0  0  0  0  0  0  0  0  0
   -5.4843    0.6172    2.3379 C   0  0  0  0  0  0  0  0  0  0  0  0
   -5.5045   -0.6154    1.6691 O   0  0  0  0  0  0  0  0  0  0  0  0
   -4.7610   -0.9764    0.5572 N   0  0  0  0  0  4  0  0  0  0  0  0
   -4.3711   -0.2026   -0.5091 O   0  0  0  0  0  0  0  0  0  0  0  0
   -4.7451    1.4264   -0.8167 S   0  0  0  0  0  0  0  0  0  0  0  0
   -4.7667    2.1952    0.5487 C   0  0  0  0  0  0  0  0  0  0  0  0
   -4.4080   -2.2218    0.5680 C   0  0  0  0  0  0  0  0  0  0  0  0
   -3.4421   -2.9547   -0.7442 S   0  0  0  0  0  0  0  0  0  0  0  0
   -2.9593   -1.6367   -1.8534 C   0  0  0  0  0  0  0  0  0  0  0  0
   -1.7096   -1.1993   -1.7952 C   0  0  0  0  0  0  0  0  0  0  0  0
   -0.5231   -1.8901   -0.6506 S   0  0  0  0  0  0  0  0  0  0  0  0
    1.0130   -1.2207   -0.9681 O   0  0  0  0  0  0  0  0  0  0  0  0
    1.3608   -0.2338   -0.0239 C   0  0  0  0  0  0  0  0  0  0  0  0
    2.7242   -0.5234    0.3232 O   0  0  0  0  0  0  0  0  0  0  0  0
    3.6189   -0.4761   -0.7631 C   0  0  0  0  0  0  0  0  0  0  0  0
    4.8164   -0.0010   -0.4653 C   0  0  0  0  0  0  0  0  0  0  0  0
    5.9887    0.3805   -0.1564 N   0  0  0  0  0  0  0  0  0  0  0  0
    6.7482   -0.4868    0.5914 O   0  0  0  0  0  0  0  0  0  0  0  0
    6.4852   -0.8450    1.8329 O   0  0  0  0  0  0  0  0  0  0  0  0
    7.7423   -0.4989    2.9260 S   0  0  0  0  0  0  0  0  0  0  0  0
    8.9798    0.5825    2.2390 C   0  0  0  0  0  0  0  0  0  0  0  0
    9.2435    0.6512    1.0595 O   0  0  0  0  0  0  0  0  0  0  0  0
    1.3931    1.0795   -0.6614 N   0  0  0  0  0  0  0  0  0  0  0  0
    0.3567    2.2350    0.1550 S   0  0  0  0  0  0  0  0  0  0  0  0
   -1.7278    1.8261   -0.0274 S   0  0  0  0  0  0  0  0  0  0  0  0
   -2.3852    2.2314   -1.4415 N   0  0  0  0  0  3  0  0  0  0  0  0
   -3.7228    2.0788   -1.8372 C   0  0  0  0  0  0  0  0  0  0  0  0
   -4.4092    2.6063   -3.5360 Br  0  0  0  0  0  0  0  0  0  0  0  0
  1  2  1  0
  2  3  1  0
  3  4  1  0
  4  5  1  0
  5  6  1  0
  6  7  2  0
  4  8  2  3
  8  9  1  0
  9 10  1  0
 10 11  2  3
 11 12  1  0
 12 13  1  0
 13 14  1  0
 14 15  1  0
 15 16  1  0
 16 17  2  0
 17 18  2  0
 18 19  1  0
 19 20  1  0
 20 21  1  0
 21 22  1  0
 22 23  2  0
 14 24  1  0
 24 25  1  0
 25 26  1  0
 26 27  2  3
 27 28  1  0
 28 29  1  0
  1  7  2  0
  6 28  2  0
M  CHG  2   4   1  27   1
M  RAD  1  27   2
M  END
$$$$
