
     RDKit          3D

 45 48  0  0  0  0  0  0  0  0999 V2000
   -5.9100   -0.8488    0.4365 C   0  0  0  0  0  0  0  0  0  0  0  0
   -6.9575   -0.2890   -0.1465 C   0  0  0  0  0  0  0  0  0  0  0  0
   -7.9651   -1.3108   -0.5840 C   0  0  0  0  0  0  0  0  0  0  0  0
   -7.4211    1.0619   -0.4906 C   0  0  0  0  0  0  0  0  0  0  0  0
   -6.7455    2.2068   -0.6051 C   0  0  0  0  0  0  0  0  0  0  0  0
   -5.3116    2.5687   -0.4729 C   0  0  0  0  0  0  0  0  0  0  0  0
   -4.2577    1.8011   -0.1693 C   0  0  0  0  0  0  0  0  0  0  0  0
   -3.2318    2.7829    0.2456 C   0  0  0  0  0  0  0  0  0  0  0  0
   -2.5199    3.3541   -0.9513 C   0  0  0  0  0  0  0  0  0  0  0  0
   -1.3375    4.1172   -0.4812 C   0  0  0  0  0  0  0  0  0  0  0  0
   -1.5250    5.5543   -0.1014 C   0  0  0  0  0  0  0  0  0  0  0  0
   -0.3264    6.1112    0.3153 O   0  0  0  0  0  0  0  0  0  0  0  0
   -0.5420    7.4393    0.6586 C   0  0  0  0  0  0  0  0  0  0  0  0
   -3.9020    0.3622   -0.1458 C   0  0  0  0  0  0  0  0  0  0  0  0
   -4.6562   -0.2725    0.9800 C   0  0  2  0  0  0  0  0  0  0  0  0
   -4.1480   -1.6511    1.3255 C   0  0  0  0  0  0  0  0  0  0  0  0
   -5.4640   -2.2068    0.8268 C   0  0  2  0  0  0  0  0  0  0  0  0
   -5.1566   -3.1460   -0.3187 C   0  0  0  0  0  0  0  0  0  0  0  0
   -4.4163   -4.3398    0.2995 C   0  0  0  0  0  0  0  0  0  0  0  0
   -3.1453   -4.6471   -0.4613 C   0  0  0  0  0  0  0  0  0  0  0  0
   -1.9110   -4.4095    0.3606 C   0  0  0  0  0  0  0  0  0  0  0  0
   -1.0557   -5.6504    0.4858 C   0  0  0  0  0  0  0  0  0  0  0  0
    0.3362   -5.2932    0.9599 C   0  0  0  0  0  0  0  0  0  0  0  0
    1.0772   -4.4633   -0.0839 C   0  0  0  0  0  0  0  0  0  0  0  0
    1.0979   -3.0420    0.4195 C   0  0  0  0  0  0  0  0  0  0  0  0
    1.7650   -2.9253    1.7682 C   0  0  0  0  0  0  0  0  0  0  0  0
    2.4487   -1.5870    1.9220 C   0  0  0  0  0  0  0  0  0  0  0  0
    2.6351   -0.9010    0.5613 C   0  0  2  0  0  0  0  0  0  0  0  0
    4.1165   -0.5919    0.4647 C   0  0  0  0  0  0  0  0  0  0  0  0
    4.4506    0.0938   -0.8430 C   0  0  0  0  0  0  0  0  0  0  0  0
    5.9424    0.3687   -0.8622 C   0  0  0  0  0  0  0  0  0  0  0  0
    6.6651   -0.9683   -0.7447 C   0  0  0  0  0  0  0  0  0  0  0  0
    6.2721   -1.6467    0.5600 C   0  0  0  0  0  0  0  0  0  0  0  0
    7.2282   -1.1387    1.5964 C   0  0  0  0  0  3  0  0  0  0  0  0
    8.2827   -0.3232    0.8790 C   0  0  0  0  0  0  0  0  0  0  0  0
    8.1115   -0.7517   -0.5283 C   0  0  0  0  0  0  0  0  0  0  0  0
    9.0266   -0.9036   -1.3858 N   0  0  0  0  0  0  0  0  0  0  0  0
    8.6928   -1.3228   -2.7063 C   0  0  0  0  0  0  0  0  0  0  0  0
    1.8378    0.3899    0.6258 C   0  0  0  0  0  0  0  0  0  0  0  0
    2.4521    1.4438   -0.2741 C   0  0  0  0  0  0  0  0  0  0  0  0
    1.4875    1.9644   -1.2980 C   0  0  2  0  0  0  0  0  0  0  0  0
    1.9732    3.2096   -1.8199 N   0  0  0  0  0  0  0  0  0  0  0  0
    2.0555    4.1705   -0.7427 C   0  0  0  0  0  0  0  0  0  0  0  0
    0.1105    2.1105   -0.7578 C   0  0  0  0  0  0  0  0  0  0  0  0
   -0.1587    3.5197   -0.4061 C   0  0  0  0  0  0  0  0  0  0  0  0
  1  2  2  3
  2  3  1  0
  2  4  1  0
  4  5  2  3
  5  6  1  0
  6  7  2  3
  7  8  1  0
  8  9  1  0
  9 10  1  0
 10 11  1  0
 11 12  1  0
 12 13  1  0
  7 14  1  0
 15 14  1  6
 15 16  1  0
 16 17  1  0
 17 18  1  6
 18 19  1  0
 19 20  1  0
 20 21  1  0
 21 22  1  0
 22 23  1  0
 23 24  1  0
 24 25  1  0
 25 26  1  0
 26 27  1  0
 27 28  1  0
 28 29  1  1
 29 30  1  0
 30 31  1  0
 31 32  1  0
 32 33  1  0
 33 34  1  0
 34 35  1  0
 35 36  1  0
 36 37  2  3
 37 38  1  0
 28 39  1  0
 39 40  1  0
 40 41  1  0
 41 42  1  1
 42 43  1  0
 41 44  1  0
 44 45  1  0
 15  1  1  0
 17  1  1  0
 10 45  2  3
 36 32  1  0
M  RAD  1  34   2
M  END
$$$$
