
     RDKit          3D

 69 72  0  0  0  0  0  0  0  0999 V2000
  -12.0612    2.1080   -0.2049 C   0  0  0  0  0  0  0  0  0  0  0  0
  -10.8245    2.4559    0.2752 O   0  0  0  0  0  0  0  0  0  0  0  0
  -10.5891    3.8858    0.1758 C   0  0  0  0  0  3  0  0  0  0  0  0
   -9.3570    4.0972    0.9000 O   0  0  0  0  0  0  0  0  0  0  0  0
   -8.6544    2.9065    0.7106 C   0  0  2  0  0  0  0  0  0  0  0  0
   -8.6135    2.1891    2.0873 C   0  0  0  0  0  0  0  0  0  0  0  0
   -7.0807    3.2697    0.4822 C   0  0  0  0  0  3  0  0  0  0  0  0
   -6.6831    1.8311   -0.1155 C   0  0  1  0  0  0  0  0  0  0  0  0
   -7.3541    2.1209   -1.4006 O   0  0  0  0  0  0  0  0  0  0  0  0
   -8.3881    1.2314   -1.5729 C   0  0  0  0  0  2  0  0  0  0  0  0
   -5.1966    1.8831   -0.4263 C   0  0  2  0  0  0  0  0  0  0  0  0
   -4.8708    0.8623   -1.5016 C   0  0  0  0  0  0  0  0  0  0  0  0
   -6.1585   -0.4068   -1.6747 S   0  0  0  0  0  0  0  0  0  0  0  0
   -5.2533   -0.6602   -0.1119 C   0  0  0  0  0  0  0  0  0  0  0  0
   -3.9956   -0.2594   -0.8797 C   0  0  0  0  0  0  0  0  0  0  0  0
   -3.7987   -1.1984   -1.9025 O   0  0  0  0  0  0  0  0  0  0  0  0
   -4.4396   -2.3536   -1.6387 N   0  0  0  0  0  0  0  0  0  0  0  0
   -3.8227   -2.9547   -0.4778 C   0  0  0  0  0  3  0  0  0  0  0  0
   -2.5777   -2.0674    0.1791 S   0  0  0  0  0  0  0  0  0  0  0  0
   -2.5703   -1.4574    1.6831 O   0  0  0  0  0  0  0  0  0  0  0  0
   -4.3815    1.6701    0.6946 O   0  0  0  0  0  0  0  0  0  0  0  0
   -3.5323    2.8290    0.7656 C   0  0  2  0  0  0  0  0  0  0  0  0
   -3.2273    3.0527   -0.5799 O   0  0  0  0  0  0  0  0  0  0  0  0
   -2.6831    4.2019   -0.7270 O   0  0  0  0  0  0  0  0  0  0  0  0
   -2.3805    2.5324    1.4744 O   0  0  0  0  0  0  0  0  0  0  0  0
   -1.9536    1.3388    1.2164 O   0  0  0  0  0  0  0  0  0  0  0  0
   -0.6754    1.2869    1.0388 O   0  0  0  0  0  0  0  0  0  0  0  0
   -0.1712    1.7802   -0.5111 S   0  0  0  0  0  0  0  0  0  0  0  0
    1.5317    1.9733   -0.5260 O   0  0  0  0  0  0  0  0  0  0  0  0
    2.1729    0.8504   -1.0402 C   0  0  2  0  0  0  0  0  0  0  0  0
    1.2491    0.1223   -1.8302 O   0  0  0  0  0  0  0  0  0  0  0  0
    0.4445   -0.5841   -0.9448 C   0  0  0  0  0  3  0  0  0  0  0  0
   -0.6177   -1.2315   -1.5093 O   0  0  0  0  0  0  0  0  0  0  0  0
   -0.9923   -2.7056   -0.6237 S   0  0  0  0  0  0  0  0  0  0  0  0
   -1.1292   -4.0303   -1.5816 O   0  0  0  0  0  0  0  0  0  0  0  0
   -0.0519   -4.7976   -1.5883 O   0  0  0  0  0  0  0  0  0  0  0  0
   -0.5570   -6.3949   -1.9574 S   0  0  0  0  0  0  0  0  0  0  0  0
   -0.9797   -7.2490   -0.5358 O   0  0  0  0  0  0  0  0  0  0  0  0
   -1.9212   -6.9149    0.3734 C   0  0  0  0  0  0  0  0  0  0  0  0
   -2.5733   -5.8567    0.2572 O   0  0  0  0  0  0  0  0  0  0  0  0
    2.7025    0.0003    0.0621 C   0  0  2  0  0  0  0  0  0  0  0  0
    2.1957    0.5124    1.2748 O   0  0  0  0  0  0  0  0  0  0  0  0
    2.9224   -0.2190    2.6455 S   0  0  0  0  0  0  0  0  0  0  0  0
    3.4605   -1.7985    2.3833 O   0  0  0  0  0  0  0  0  0  0  0  0
    2.6916   -2.7671    2.7757 O   0  0  0  0  0  0  0  0  0  0  0  0
    1.3385   -2.4432    2.8595 C   0  0  0  0  0  3  0  0  0  0  0  0
    0.5354   -3.5436    2.9041 O   0  0  0  0  0  0  0  0  0  0  0  0
   -0.4582   -3.6008    2.0169 O   0  0  0  0  0  0  0  0  0  0  0  0
    0.4692   -2.7752    0.5571 S   0  0  0  0  0  0  0  0  0  0  0  0
    0.5015   -1.0712    1.3597 O   0  0  0  0  0  0  0  0  0  0  0  0
    1.8091   -3.4704    0.2381 O   0  0  0  0  0  0  0  0  0  0  0  0
    1.7746   -4.7714    0.5244 O   0  0  0  0  0  0  0  0  0  0  0  0
    4.1481   -0.1743    0.1714 C   0  0  2  0  0  0  0  0  0  0  0  0
    5.0695    0.5309   -0.8335 C   0  0  2  0  0  0  0  0  0  0  0  0
    4.2321    1.2856   -1.7700 O   0  0  0  0  0  0  0  0  0  0  0  0
    4.8755    2.8940   -1.7143 S   0  0  0  0  0  0  0  0  0  0  0  0
    6.2858    3.0629   -0.8667 O   0  0  0  0  0  0  0  0  0  0  0  0
    6.2443    2.9278    0.4122 O   0  0  0  0  0  0  0  0  0  0  0  0
    7.5598    2.6081    0.8455 C   0  0  0  0  0  3  0  0  0  0  0  0
    8.0394    1.4616    0.2211 O   0  0  0  0  0  0  0  0  0  0  0  0
    9.0184    1.7204   -0.6302 O   0  0  0  0  0  0  0  0  0  0  0  0
    9.3684    2.9788   -0.4474 O   0  0  0  0  0  0  0  0  0  0  0  0
   10.2797    3.0873    0.5054 O   0  0  0  0  0  0  0  0  0  0  0  0
   10.7815    1.8246    0.8018 C   0  0  0  0  0  3  0  0  0  0  0  0
   11.6464    1.3466   -0.1762 O   0  0  0  0  0  0  0  0  0  0  0  0
   12.9066    1.5106    0.1703 O   0  0  0  0  0  0  0  0  0  0  0  0
   13.2950    2.7631    0.0260 O   0  0  0  0  0  0  0  0  0  0  0  0
    5.0176   -1.1383   -1.0146 S   0  0  0  0  0  0  0  0  0  0  0  0
    6.0073   -2.0983   -0.3561 O   0  0  0  0  0  0  0  0  0  0  0  0
  1  2  1  0
  2  3  1  0
  3  4  1  0
  4  5  1  0
  5  6  1  1
  5  7  1  0
  8  7  1  1
  8  9  1  0
  9 10  1  0
  8 11  1  0
 11 12  1  0
 12 13  1  0
 13 14  1  0
 14 15  1  0
 15 16  1  0
 16 17  1  0
 17 18  1  0
 18 19  1  0
 19 20  1  0
 11 21  1  1
 21 22  1  0
 22 23  1  6
 23 24  1  0
 22 25  1  0
 25 26  1  0
 26 27  1  0
 27 28  1  0
 28 29  1  0
 30 29  1  1
 30 31  1  0
 31 32  1  0
 32 33  1  0
 33 34  1  0
 34 35  1  0
 35 36  1  0
 36 37  1  0
 37 38  1  0
 38 39  1  0
 39 40  2  0
 30 41  1  0
 41 42  1  1
 42 43  1  0
 43 44  1  0
 44 45  1  0
 45 46  1  0
 46 47  1  0
 47 48  1  0
 48 49  1  0
 49 50  1  0
 49 51  1  0
 51 52  1  0
 41 53  1  0
 53 54  1  0
 54 55  1  6
 55 56  1  0
 56 57  1  0
 57 58  1  0
 58 59  1  0
 59 60  1  0
 60 61  1  0
 61 62  1  0
 62 63  1  0
 63 64  1  0
 64 65  1  0
 65 66  1  0
 66 67  1  0
 54 68  1  0
 68 69  2  0
 15 12  1  0
 34 19  1  0
 49 34  1  0
 53 68  1  6
M  RAD  8   3   2   7   2  10   3  18   2  32   2  46   2  59   2  64   2
M  END
$$$$
