
     RDKit          3D

 32 35  0  0  0  0  0  0  0  0999 V2000
    3.1609   -1.3124   -1.5812 C   0  0  0  0  0  0  0  0  0  0  0  0
    3.2580   -1.9587   -0.2467 C   0  0  0  0  0  0  0  0  0  0  0  0
    3.4455   -3.4451   -0.4113 C   0  0  0  0  0  0  0  0  0  0  0  0
    4.3897   -1.3674    0.5720 C   0  0  0  0  0  0  0  0  0  0  0  0
    4.0341    0.0344    0.9754 C   0  0  0  0  0  0  0  0  0  0  0  0
    2.5688    0.3326    0.8739 C   0  0  0  0  0  0  0  0  0  0  0  0
    1.9458    0.6355    2.2331 C   0  0  1  0  0  0  0  0  0  0  0  0
    2.3532    1.9728    2.7579 C   0  0  0  0  0  0  0  0  0  0  0  0
    0.4285    0.5384    2.0338 C   0  0  1  0  0  0  0  0  0  0  0  0
   -0.1072    1.8944    1.6519 C   0  0  0  0  0  0  0  0  0  0  0  0
    0.9201    2.6908    0.8536 C   0  0  0  0  0  0  0  0  0  0  0  0
    0.7990    2.3897   -0.6368 C   0  0  2  0  0  0  0  0  0  0  0  0
    0.4103    3.6006   -1.4239 C   0  0  0  0  0  0  0  0  0  0  0  0
   -0.1194    1.2300   -0.7995 C   0  0  1  0  0  0  0  0  0  0  0  0
   -0.8536    1.1721   -2.0861 C   0  0  0  0  0  0  0  0  0  0  0  0
   -2.2933    1.6285   -1.8129 C   0  0  0  0  0  0  0  0  0  0  0  0
   -2.6292    2.6896   -2.7124 N   0  0  0  0  0  1  0  0  0  0  0  0
   -3.2428    0.4782   -2.0594 C   0  0  0  0  0  3  0  0  0  0  0  0
   -3.9744    0.0530   -0.8098 C   0  0  0  0  0  0  0  0  0  0  0  0
   -3.2572   -1.1114   -0.1215 C   0  0  0  0  0  0  0  0  0  0  0  0
   -2.5691   -1.9094   -1.1789 C   0  0  0  0  0  1  0  0  0  0  0  0
   -4.3359   -1.9807    0.4920 C   0  0  0  0  0  0  0  0  0  0  0  0
   -2.3243   -0.5479    0.8924 C   0  0  0  0  0  0  0  0  0  0  0  0
   -2.9596   -0.1356    2.1717 C   0  0  0  0  0  0  0  0  0  0  0  0
   -2.2973   -1.3524    3.3762 S   0  0  0  0  0  0  0  0  0  0  0  0
   -1.1663   -2.2262    2.2227 C   0  0  0  0  0  0  0  0  0  0  0  0
   -1.0717   -1.2470    1.1101 C   0  0  0  0  0  0  0  0  0  0  0  0
    0.1858   -0.4999    0.9955 C   0  0  0  0  0  0  0  0  0  0  0  0
    0.5398   -0.0199   -0.3687 C   0  0  0  0  0  0  0  0  0  0  0  0
    0.7236   -1.0615   -1.3937 C   0  0  0  0  0  0  0  0  0  0  0  0
    2.0158   -0.9009   -2.1123 C   0  0  0  0  0  0  0  0  0  0  0  0
    2.0226   -0.2642   -3.4571 C   0  0  0  0  0  0  0  0  0  0  0  0
  1  2  1  0
  2  3  1  0
  2  4  1  0
  4  5  1  0
  5  6  1  0
  6  7  1  0
  7  8  1  6
  7  9  1  0
  9 10  1  6
 10 11  1  0
 11 12  1  0
 12 13  1  6
 12 14  1  0
 14 15  1  6
 15 16  1  0
 16 17  1  0
 16 18  1  0
 18 19  1  0
 19 20  1  0
 20 21  1  0
 20 22  1  0
 20 23  1  0
 23 24  1  0
 24 25  1  0
 25 26  1  0
 26 27  1  0
 27 28  1  0
 28 29  1  0
 29 30  1  0
 30 31  1  0
 31 32  1  0
  1 31  2  3
 28  9  1  0
 29 14  1  0
 27 23  1  0
M  CHG  1  17   1
M  RAD  3  17   2  18   2  21   2
M  END
$$$$
