
     RDKit          2D

 45 44  0  0  0  0  0  0  0  0999 V2000
    0.0000    0.0000    0.0000 C   0  0  0  0  0  0  0  0  0  0  0  0
    1.2990    0.7500    0.0000 C   0  0  0  0  0  0  0  0  0  0  0  0
    2.5981   -0.0000    0.0000 C   0  0  0  0  0  0  0  0  0  0  0  0
    3.8971    0.7500    0.0000 C   0  0  0  0  0  0  0  0  0  0  0  0
    2.5981   -1.5000    0.0000 C   0  0  0  0  0  0  0  0  0  0  0  0
    1.2990   -2.2500    0.0000 O   0  0  0  0  0  0  0  0  0  0  0  0
    3.8971   -2.2500    0.0000 O   0  0  0  0  0  0  0  0  0  0  0  0
    3.8971   -3.7500    0.0000 C   0  0  0  0  0  3  0  0  0  0  0  0
    5.1962   -4.5000    0.0000 C   0  0  0  0  0  0  0  0  0  0  0  0
    5.1962   -6.0000    0.0000 C   0  0  0  0  0  0  0  0  0  0  0  0
    3.8971   -6.7500    0.0000 O   0  0  0  0  0  0  0  0  0  0  0  0
    6.4952   -6.7500    0.0000 C   0  0  0  0  0  0  0  0  0  0  0  0
    6.4952   -8.2500    0.0000 C   0  0  0  0  0  0  0  0  0  0  0  0
    7.7942   -9.0000    0.0000 C   0  0  0  0  0  0  0  0  0  0  0  0
    7.7942  -10.5000    0.0000 C   0  0  0  0  0  3  0  0  0  0  0  0
    9.0933  -11.2500    0.0000 C   0  0  0  0  0  0  0  0  0  0  0  0
    9.0933  -12.7500    0.0000 C   0  0  0  0  0  0  0  0  0  0  0  0
    7.7942  -13.5000    0.0000 O   0  0  0  0  0  0  0  0  0  0  0  0
    7.7942  -15.0000    0.0000 C   0  0  0  0  0  0  0  0  0  0  0  0
    6.4952  -15.7500    0.0000 C   0  0  0  0  0  3  0  0  0  0  0  0
    6.4952  -17.2500    0.0000 C   0  0  0  0  0  3  0  0  0  0  0  0
    5.1962  -18.0000    0.0000 O   0  0  0  0  0  0  0  0  0  0  0  0
    5.1962  -19.5000    0.0000 O   0  0  0  0  0  0  0  0  0  0  0  0
    3.8971  -20.2500    0.0000 C   0  0  0  0  0  0  0  0  0  0  0  0
    3.8971  -21.7500    0.0000 O   0  0  0  0  0  0  0  0  0  0  0  0
    2.5981  -19.5000    0.0000 O   0  0  0  0  0  0  0  0  0  0  0  0
    1.2990  -20.2500    0.0000 C   0  0  0  0  0  3  0  0  0  0  0  0
    0.0000  -19.5000    0.0000 O   0  0  0  0  0  0  0  0  0  0  0  0
   10.3923  -13.5000    0.0000 O   0  0  0  0  0  0  0  0  0  0  0  0
   10.3923  -15.0000    0.0000 C   0  0  0  0  0  3  0  0  0  0  0  0
   11.6913  -15.7500    0.0000 C   0  0  0  0  0  0  0  0  0  0  0  0
   11.6913  -17.2500    0.0000 C   0  0  0  0  0  0  0  0  0  0  0  0
   12.9904  -18.0000    0.0000 C   0  0  0  0  0  3  0  0  0  0  0  0
   12.9904  -19.5000    0.0000 C   0  0  0  0  0  0  0  0  0  0  0  0
   14.2894  -20.2500    0.0000 C   0  0  0  0  0  0  0  0  0  0  0  0
   14.2894  -21.7500    0.0000 C   0  0  0  0  0  1  0  0  0  0  0  0
   15.5885  -19.5000    0.0000 C   0  0  0  0  0  0  0  0  0  0  0  0
   16.8875  -20.2500    0.0000 C   0  0  0  0  0  0  0  0  0  0  0  0
   18.1865  -19.5000    0.0000 O   0  0  0  0  0  0  0  0  0  0  0  0
   14.2894  -17.2500    0.0000 C   0  0  0  0  0  0  0  0  0  0  0  0
   14.2894  -15.7500    0.0000 C   0  0  0  0  0  0  0  0  0  0  0  0
   12.9904  -15.0000    0.0000 C   0  0  0  0  0  0  0  0  0  0  0  0
   15.5885  -15.0000    0.0000 O   0  0  0  0  0  0  0  0  0  0  0  0
   15.5885  -13.5000    0.0000 C   0  0  0  0  0  0  0  0  0  0  0  0
   16.8875  -12.7500    0.0000 O   0  0  0  0  0  0  0  0  0  0  0  0
  1  2  1  0
  2  3  1  0
  3  4  1  6
  3  5  1  0
  5  6  2  0
  5  7  1  0
  7  8  1  0
  8  9  1  0
  9 10  1  0
 10 11  1  1
 10 12  1  0
 12 13  2  3
 13 14  1  0
 14 15  1  0
 15 16  1  0
 17 16  1  1
 17 18  1  0
 18 19  1  0
 19 20  1  0
 20 21  1  0
 21 22  1  0
 22 23  1  0
 23 24  1  0
 24 25  1  1
 24 26  1  0
 26 27  1  0
 27 28  1  0
 17 29  1  0
 29 30  1  0
 30 31  1  0
 31 32  2  3
 32 33  1  0
 33 34  1  0
 34 35  1  0
 35 36  1  6
 35 37  1  0
 37 38  1  0
 38 39  2  0
 33 40  1  0
 40 41  1  0
 41 42  1  6
 41 43  1  0
 43 44  1  0
 44 45  2  0
M  RAD  8   8   2  15   2  20   2  21   2  27   2  30   2  33   2  36   2
M  END
$$$$
