
     RDKit          3D

  7  6  0  0  0  0  0  0  0  0999 V2000
   -2.7856    0.9714   -0.9862 Cl  0  0  0  0  0  0  0  0  0  0  0  0
   -1.9559   -0.4003   -0.2819 N   0  0  0  0  0  2  0  0  0  0  0  0
   -0.6941   -0.0436    0.2285 C   0  0  0  0  0  0  0  0  0  0  0  0
    0.4198   -0.4948   -0.1495 N   0  0  0  0  0  4  0  0  0  0  0  0
    1.8921    0.0477    0.5827 S   0  0  0  0  0  0  0  0  0  0  0  0
    2.6401    1.3106   -0.2775 F   0  0  0  0  0  0  0  0  0  0  0  0
    0.4836   -1.3910   -1.1126 F   0  0  0  0  0  0  0  0  0  0  0  0
  1  2  1  0
  2  3  1  0
  3  4  2  3
  4  5  1  0
  5  6  1  0
  4  7  1  0
M  CHG  2   2   1   4   1
M  RAD  1   2   3
M  END
$$$$
