
     RDKit          3D

 23 24  0  0  0  0  0  0  0  0999 V2000
    1.8998   -1.7584   -1.7041 C   0  0  0  0  0  0  0  0  0  0  0  0
    2.5991   -1.5854   -0.3548 C   0  0  1  0  0  0  0  0  0  0  0  0
    3.9090   -0.9369   -0.6105 C   0  0  0  0  0  0  0  0  0  0  0  0
    4.0644    0.4410   -0.0806 C   0  0  2  0  0  0  0  0  0  0  0  0
    4.5641    0.4404    1.2259 O   0  0  0  0  0  0  0  0  0  0  0  0
    2.8694    1.3197   -0.2519 C   0  0  2  0  0  0  0  0  0  0  0  0
    2.9256    2.4236    0.5804 O   0  0  0  0  0  0  0  0  0  0  0  0
    1.5637    0.6074   -0.1777 C   0  0  1  0  0  0  0  0  0  0  0  0
    1.1242    0.3937   -1.4870 O   0  0  0  0  0  0  0  0  0  0  0  0
    1.6553   -0.7535    0.5006 C   0  0  1  0  0  0  0  0  0  0  0  0
    0.3239   -1.3492    0.2837 N   0  0  0  0  0  0  0  0  0  0  0  0
   -0.6966   -0.6157    1.0194 C   0  0  1  0  0  0  0  0  0  0  0  0
   -0.7900    0.8114    0.4472 C   0  0  0  0  0  0  0  0  0  0  0  0
   -1.9799    1.5119    1.0261 C   0  0  0  0  0  3  0  0  0  0  0  0
   -1.9231    2.8559    0.6898 O   0  0  0  0  0  0  0  0  0  0  0  0
   -3.2915    0.9426    0.5489 C   0  0  2  0  0  0  0  0  0  0  0  0
   -3.8042    0.0153    1.4378 O   0  0  0  0  0  0  0  0  0  0  0  0
   -3.2221    0.4013   -0.8538 C   0  0  1  0  0  0  0  0  0  0  0  0
   -2.7141    1.3971   -1.6833 O   0  0  0  0  0  0  0  0  0  0  0  0
   -2.3077   -0.8154   -0.8123 C   0  0  2  0  0  0  0  0  0  0  0  0
   -2.8537   -1.8401   -1.6089 O   0  0  0  0  0  0  0  0  0  0  0  0
   -2.0242   -1.2633    0.5878 C   0  0  1  0  0  0  0  0  0  0  0  0
   -1.8913   -2.6435    0.6114 O   0  0  0  0  0  0  0  0  0  0  0  0
  2  1  1  6
  2  3  1  0
  3  4  1  0
  4  5  1  1
  4  6  1  0
  6  7  1  1
  6  8  1  0
  8  9  1  6
  8 10  1  0
 10 11  1  6
 12 11  1  6
 12 13  1  0
 13 14  1  0
 14 15  1  0
 14 16  1  0
 16 17  1  1
 16 18  1  0
 18 19  1  6
 18 20  1  0
 20 21  1  6
 20 22  1  0
 22 23  1  6
 10  2  1  0
 22 12  1  0
M  RAD  1  14   2
M  END
$$$$
