
     RDKit          3D

 16 16  0  0  0  0  0  0  0  0999 V2000
    0.1493    2.1257   -0.2919 C   0  0  0  0  0  0  0  0  0  0  0  0
   -1.0380    1.2430   -0.0285 C   0  0  1  0  0  0  0  0  0  0  0  0
   -1.4184    0.5011   -1.2705 C   0  0  0  0  0  0  0  0  0  0  0  0
   -2.5599   -0.4423   -1.0730 C   0  0  2  0  0  0  0  0  0  0  0  0
   -3.6839   -0.1237   -1.8228 O   0  0  0  0  0  0  0  0  0  0  0  0
   -2.8576   -0.5523    0.4062 C   0  0  2  0  0  0  0  0  0  0  0  0
   -3.2935    0.6747    0.9193 O   0  0  0  0  0  0  0  0  0  0  0  0
   -1.5574   -0.9104    1.0967 C   0  0  1  0  0  0  0  0  0  0  0  0
   -0.9294   -1.9582    0.3885 O   0  0  0  0  0  0  0  0  0  0  0  0
   -0.7075    0.3324    1.1155 C   0  0  1  0  0  0  0  0  0  0  0  0
    0.7043    0.0511    1.2374 N   0  0  0  0  0  0  0  0  0  0  0  0
    1.2037   -0.6344    0.0805 C   0  0  0  0  0  3  0  0  0  0  0  0
    2.4972   -0.0510   -0.4299 C   0  0  0  0  0  0  0  0  0  0  0  0
    3.6131   -0.6657    0.1686 O   0  0  0  0  0  0  0  0  0  0  0  0
    4.8830   -0.2535   -0.1834 C   0  0  0  0  0  0  0  0  0  0  0  0
    4.9949    0.6635   -1.0330 O   0  0  0  0  0  0  0  0  0  0  0  0
  2  1  1  6
  2  3  1  0
  3  4  1  0
  4  5  1  6
  4  6  1  0
  6  7  1  1
  6  8  1  0
  8  9  1  6
  8 10  1  0
 10 11  1  6
 11 12  1  0
 12 13  1  0
 13 14  1  0
 14 15  1  0
 15 16  2  0
 10  2  1  0
M  RAD  1  12   2
M  END
$$$$
