
     RDKit          3D

 20 20  0  0  0  0  0  0  0  0999 V2000
   -1.5650   -3.4922   -0.3307 O   0  0  0  0  0  0  0  0  0  0  0  0
   -1.7503   -2.5413    0.6610 C   0  0  0  0  0  0  0  0  0  0  0  0
   -0.6719   -1.4622    0.6243 C   0  0  0  0  0  3  0  0  0  0  0  0
   -1.0969   -0.4042   -0.2252 N   0  0  0  0  0  0  0  0  0  0  0  0
   -2.0051    0.5288    0.3642 C   0  0  2  0  0  0  0  0  0  0  0  0
   -2.8480   -0.0189    1.4625 C   0  0  0  0  0  0  0  0  0  0  0  0
   -2.0017   -0.4714    2.4731 O   0  0  0  0  0  0  0  0  0  0  0  0
   -2.8142    1.1412   -0.7588 C   0  0  1  0  0  0  0  0  0  0  0  0
   -3.3988    2.3407   -0.3903 O   0  0  0  0  0  0  0  0  0  0  0  0
   -1.8034    1.4312   -1.8787 C   0  0  2  0  0  0  0  0  0  0  0  0
   -1.7169    0.3204   -2.7208 O   0  0  0  0  0  0  0  0  0  0  0  0
   -0.5620    1.5664   -1.2564 O   0  0  0  0  0  0  0  0  0  0  0  0
   -0.0473    0.3109   -0.8805 C   0  0  1  0  0  0  0  0  0  0  0  0
    1.1438    0.5472    0.0164 C   0  0  0  0  0  0  0  0  0  0  0  0
    1.6472   -0.6815    0.4280 O   0  0  0  0  0  0  0  0  0  0  0  0
    2.6856   -0.5495    1.2117 O   0  0  0  0  0  0  0  0  0  0  0  0
    3.8450   -0.6577    0.4740 C   0  0  2  0  0  0  0  0  0  0  0  0
    5.0251   -0.5004    1.4105 C   0  0  0  0  0  0  0  0  0  0  0  0
    3.9340    0.6034   -0.8047 S   0  0  0  0  0  0  0  0  0  0  0  0
    4.0008    1.9891   -0.2143 O   0  0  0  0  0  0  0  0  0  0  0  0
  1  2  1  0
  2  3  1  0
  3  4  1  0
  4  5  1  0
  5  6  1  1
  6  7  1  0
  5  8  1  0
  8  9  1  1
  8 10  1  0
 10 11  1  6
 10 12  1  0
 12 13  1  0
 13 14  1  1
 14 15  1  0
 15 16  1  0
 16 17  1  0
 17 18  1  1
 17 19  1  0
 19 20  2  0
 13  4  1  0
M  RAD  1   3   2
M  END
$$$$
