
     RDKit          3D

  9  8  0  0  0  0  0  0  0  0999 V2000
    2.6383    0.9487   -1.1541 O   0  0  0  0  0  1  0  0  0  0  0  0
    2.6921    0.3831   -0.0426 O   0  0  0  0  0  0  0  0  0  0  0  0
    1.5786    0.5239    0.7845 C   0  0  0  0  0  0  0  0  0  0  0  0
    1.0567   -0.8842    0.8129 C   0  0  0  0  0  0  0  0  0  0  0  0
   -0.0144   -1.0206   -0.1664 C   0  0  0  0  0  0  0  0  0  0  0  0
   -1.0984   -0.9063   -0.0168 C   0  0  0  0  0  0  0  0  0  0  0  0
   -2.4630   -0.8337   -0.6812 O   0  0  0  0  0  0  0  0  0  0  0  0
   -2.3108    0.8675   -0.5288 C   0  0  0  0  0  0  0  0  0  0  0  0
   -2.0790    0.9217    0.9926 C   0  0  0  0  0  0  0  0  0  0  0  0
  1  2  1  0
  2  3  1  0
  3  4  1  0
  4  5  1  0
  5  6  2  3
  6  7  1  0
  7  8  1  0
  8  9  1  0
M  CHG  1   1  -1
M  END
$$$$
