
     RDKit          3D

 29 32  0  0  0  0  0  0  0  0999 V2000
   -1.2236    4.8137   -0.9584 C   0  0  0  0  0  0  0  0  0  0  0  0
   -1.5859    3.4353   -0.9049 O   0  0  0  0  0  0  0  0  0  0  0  0
   -2.0698    2.8377    0.2523 C   0  0  0  0  0  0  0  0  0  0  0  0
   -2.1750    3.5834    1.2680 O   0  0  0  0  0  0  0  0  0  0  0  0
   -2.4158    1.4242    0.2184 C   0  0  0  0  0  0  0  0  0  0  0  0
   -3.4755    1.0527   -0.7577 C   0  0  0  0  0  0  0  0  0  0  0  0
   -4.4698    0.0378   -0.3536 C   0  0  0  0  0  0  0  0  0  0  0  0
   -3.9740   -1.4224   -0.5131 C   0  0  0  0  0  0  0  0  0  0  0  0
   -2.7005   -1.4659    0.1395 C   0  0  2  0  0  0  0  0  0  0  0  0
   -1.6900   -0.6361   -0.6838 C   0  0  0  0  0  0  0  0  0  0  0  0
   -1.2286    0.4961    0.2502 C   0  0  1  0  0  0  0  0  0  0  0  0
   -0.0480    0.9965   -0.2007 O   0  0  0  0  0  0  0  0  0  0  0  0
    1.0996    0.6271    0.5642 C   0  0  0  0  0  0  0  0  0  0  0  0
    2.3357    0.9471   -0.1769 C   0  0  0  0  0  0  0  0  0  0  0  0
    3.3269   -0.0142   -0.1954 C   0  0  0  0  0  0  0  0  0  0  0  0
    4.4970    0.2139   -0.8621 C   0  0  0  0  0  0  0  0  0  0  0  0
    4.7056    1.3891   -1.5177 C   0  0  0  0  0  0  0  0  0  0  0  0
    5.8762    1.6009   -2.1770 F   0  0  0  0  0  0  0  0  0  0  0  0
    3.7107    2.3380   -1.4916 C   0  0  0  0  0  0  0  0  0  0  0  0
    2.5289    2.1294   -0.8285 C   0  0  0  0  0  0  0  0  0  0  0  0
    1.0055   -0.8237    0.8914 C   0  0  0  0  0  0  0  0  0  0  0  0
    1.9023   -1.7298    1.3516 C   0  0  0  0  0  0  0  0  0  0  0  0
    1.5562   -3.0869    1.5663 C   0  0  0  0  0  0  0  0  0  0  0  0
    0.2310   -3.4491    1.2770 C   0  0  0  0  0  0  0  0  0  0  0  0
   -0.2448   -4.7175    1.4332 F   0  0  0  0  0  0  0  0  0  0  0  0
   -0.6474   -2.5285    0.8188 C   0  0  0  0  0  0  0  0  0  0  0  0
   -0.2195   -1.2907    0.6551 C   0  0  0  0  0  0  0  0  0  0  0  0
   -2.0571   -2.7239    0.4579 N   0  0  0  0  0  0  0  0  0  0  0  0
   -2.5505   -4.0345    0.4774 C   0  0  0  0  0  2  0  0  0  0  0  0
  1  2  1  0
  2  3  1  0
  3  4  2  0
  3  5  1  0
  5  6  1  0
  6  7  1  0
  7  8  1  0
  9  8  1  6
  9 10  1  0
 10 11  1  0
 11 12  1  6
 12 13  1  0
 13 14  1  0
 14 15  2  0
 15 16  1  0
 16 17  2  0
 17 18  1  0
 17 19  1  0
 19 20  2  0
 13 21  1  0
 21 22  1  0
 22 23  2  0
 23 24  1  0
 24 25  1  0
 24 26  2  0
 26 27  1  0
  9 28  1  0
 28 29  1  0
 11  5  1  0
 20 14  1  0
 27 21  2  0
 28 26  1  0
M  RAD  1  29   3
M  END
$$$$
