
     RDKit          3D

 31 32  0  0  0  0  0  0  0  0999 V2000
    3.7682    1.1181    0.2267 C   0  0  0  0  0  0  0  0  0  0  0  0
    2.4347    1.5289    0.7018 C   0  0  0  0  0  0  0  0  0  0  0  0
    2.1107    2.8019    0.5404 C   0  0  0  0  0  0  0  0  0  0  0  0
    0.7967    3.3167    0.9826 C   0  0  0  0  0  0  0  0  0  0  0  0
   -0.0804    2.5096    1.5867 C   0  0  0  0  0  0  0  0  0  0  0  0
   -1.4156    3.0390    2.0344 C   0  0  0  0  0  0  0  0  0  0  0  0
   -1.9824    3.9201    0.9684 C   0  0  0  0  0  0  0  0  0  0  0  0
   -3.3224    3.4782    0.4993 C   0  0  0  0  0  0  0  0  0  0  0  0
   -4.2870    4.2727    0.6766 O   0  0  0  0  0  0  0  0  0  0  0  0
   -3.5354    2.2594   -0.1069 O   0  0  0  0  0  0  0  0  0  0  0  0
   -2.9190    1.0485    0.3535 C   0  0  0  0  0  3  0  0  0  0  0  0
   -3.9066   -0.0370    0.1155 C   0  0  0  0  0  0  0  0  0  0  0  0
   -3.6682   -1.1508   -0.5289 C   0  0  0  0  0  0  0  0  0  0  0  0
   -4.5052   -2.3466   -0.8712 C   0  0  0  0  0  0  0  0  0  0  0  0
   -3.6626   -3.4098   -0.6932 O   0  0  0  0  0  0  0  0  0  0  0  0
   -2.3623   -3.0219   -0.8598 C   0  0  0  0  0  0  0  0  0  0  0  0
   -1.6541   -3.2141    0.4788 C   0  0  0  0  0  0  0  0  0  0  0  0
   -2.3581   -1.5249   -1.1386 C   0  0  1  0  0  0  0  0  0  0  0  0
   -2.4090   -1.3950   -2.5370 O   0  0  0  0  0  0  0  0  0  0  0  0
   -1.1945   -0.8153   -0.5484 C   0  0  0  0  0  3  0  0  0  0  0  0
   -0.7325    0.3465   -1.3991 C   0  0  0  0  0  0  0  0  0  0  0  0
   -0.0175   -1.8010   -0.5125 C   0  0  0  0  0  0  0  0  0  0  0  0
    1.2592   -1.0097   -0.6453 C   0  0  0  0  0  0  0  0  0  0  0  0
    2.4795   -1.8034   -0.3295 C   0  0  0  0  0  0  0  0  0  0  0  0
    3.3348   -1.1872    0.7532 C   0  0  0  0  0  0  0  0  0  0  0  0
    2.3736   -0.6720    1.8231 C   0  0  0  0  0  0  0  0  0  0  0  0
    4.1284   -2.3136    1.3862 C   0  0  0  0  0  0  0  0  0  0  0  0
    4.1991   -0.1047    0.2395 C   0  0  0  0  0  0  0  0  0  0  0  0
    5.4950   -0.4235   -0.2345 N   0  0  0  0  0  0  0  0  0  0  0  0
    5.7439   -1.3685   -0.9684 N   0  0  0  0  0  4  0  0  0  0  0  0
    5.8889   -2.0406   -1.9935 N   0  0  0  0  0  2  0  0  0  0  0  0
  1  2  1  0
  2  3  2  0
  3  4  1  0
  4  5  2  0
  5  6  1  0
  6  7  1  0
  7  8  1  0
  8  9  2  0
  8 10  1  0
 10 11  1  0
 11 12  1  0
 12 13  2  3
 13 14  1  0
 14 15  1  0
 15 16  1  0
 16 17  1  0
 16 18  1  0
 18 19  1  6
 18 20  1  0
 20 21  1  0
 20 22  1  0
 22 23  1  0
 23 24  1  0
 24 25  1  0
 25 26  1  0
 25 27  1  0
 25 28  1  0
 28 29  1  0
 29 30  2  0
 30 31  2  0
  1 28  2  0
 18 13  1  0
M  CHG  2  30   1  31  -1
M  RAD  2  11   2  20   2
M  END
$$$$
