
     RDKit          3D

  9  9  0  0  0  0  0  0  0  0999 V2000
    2.0994    0.2029   -0.7310 C   0  0  0  0  0  0  0  0  0  0  0  0
    1.4173    1.3318   -0.7219 C   0  0  0  0  0  0  0  0  0  0  0  0
    0.1192    1.7870   -0.2614 C   0  0  0  0  0  0  0  0  0  0  0  0
   -0.9562    1.1885    0.2059 C   0  0  0  0  0  0  0  0  0  0  0  0
   -1.3524   -0.1777    0.4791 C   0  0  0  0  0  0  0  0  0  0  0  0
   -2.8374   -0.3348    0.6075 C   0  0  0  0  0  0  0  0  0  0  0  0
   -0.7471   -1.2081   -0.3755 C   0  0  0  0  0  0  0  0  0  0  0  0
    0.4655   -1.6397   -0.7009 C   0  0  0  0  0  0  0  0  0  0  0  0
    1.7918   -1.1499   -0.2397 C   0  0  0  0  0  0  0  0  0  0  0  0
  1  2  2  3
  2  3  1  0
  3  4  2  3
  4  5  1  0
  5  6  1  0
  5  7  1  0
  7  8  2  3
  8  9  1  0
  9  1  1  0
M  END
$$$$
