
     RDKit          2D

 86 85  0  0  0  0  0  0  0  0999 V2000
    0.0000    0.0000    0.0000 C   0  0  0  0  0  0  0  0  0  0  0  0
    1.2990    0.7500    0.0000 C   0  0  0  0  0  0  0  0  0  0  0  0
    2.5981   -0.0000    0.0000 C   0  0  0  0  0  0  0  0  0  0  0  0
    1.2990    2.2500    0.0000 C   0  0  0  0  0  0  0  0  0  0  0  0
    2.5981    3.0000    0.0000 C   0  0  0  0  0  0  0  0  0  0  0  0
    2.5981    4.5000    0.0000 C   0  0  0  0  0  0  0  0  0  0  0  0
    3.8971    5.2500    0.0000 C   0  0  0  0  0  0  0  0  0  0  0  0
    3.8971    6.7500    0.0000 C   0  0  0  0  0  0  0  0  0  0  0  0
    5.1962    4.5000    0.0000 C   0  0  0  0  0  3  0  0  0  0  0  0
    6.4952    5.2500    0.0000 C   0  0  0  0  0  0  0  0  0  0  0  0
    7.7942    4.5000    0.0000 C   0  0  0  0  0  0  0  0  0  0  0  0
    9.0933    5.2500    0.0000 C   0  0  0  0  0  3  0  0  0  0  0  0
   10.3923    4.5000    0.0000 C   0  0  0  0  0  0  0  0  0  0  0  0
   11.6913    5.2500    0.0000 C   0  0  0  0  0  2  0  0  0  0  0  0
   10.3923    3.0000    0.0000 C   0  0  0  0  0  0  0  0  0  0  0  0
   11.6913    2.2500    0.0000 C   0  0  0  0  0  0  0  0  0  0  0  0
   11.6913    0.7500    0.0000 C   0  0  0  0  0  0  0  0  0  0  0  0
   12.9904    3.0000    0.0000 C   0  0  0  0  0  3  0  0  0  0  0  0
   14.2894    2.2500    0.0000 C   0  0  0  0  0  0  0  0  0  0  0  0
   15.5885    3.0000    0.0000 C   0  0  0  0  0  0  0  0  0  0  0  0
   16.8875    2.2500    0.0000 C   0  0  0  0  0  0  0  0  0  0  0  0
   16.8875    0.7500    0.0000 I   0  0  0  0  0  0  0  0  0  0  0  0
   18.1865    3.0000    0.0000 C   0  0  0  0  0  0  0  0  0  0  0  0
   19.4856    2.2500    0.0000 C   0  0  0  0  0  3  0  0  0  0  0  0
   20.7846    3.0000    0.0000 O   0  0  0  0  0  0  0  0  0  0  0  0
   22.0836    2.2500    0.0000 C   0  0  0  0  0  3  0  0  0  0  0  0
   23.3827    3.0000    0.0000 C   0  0  0  0  0  0  0  0  0  0  0  0
   24.6817    2.2500    0.0000 C   0  0  0  0  0  0  0  0  0  0  0  0
   25.9808    3.0000    0.0000 C   0  0  0  0  0  0  0  0  0  0  0  0
   24.6817    0.7500    0.0000 C   0  0  0  0  0  3  0  0  0  0  0  0
   25.9808   -0.0000    0.0000 P   0  0  0  0  0  0  0  0  0  0  0  0
   25.9808   -1.5000    0.0000 P   0  0  0  0  0  0  0  0  0  0  0  0
   27.2798   -2.2500    0.0000 C   0  0  0  0  0  0  0  0  0  0  0  0
   27.2798   -3.7500    0.0000 C   0  0  0  0  0  3  0  0  0  0  0  0
   28.5788   -4.5000    0.0000 C   0  0  0  0  0  2  0  0  0  0  0  0
   28.5788   -6.0000    0.0000 C   0  0  0  0  0  0  0  0  0  0  0  0
   29.8779   -6.7500    0.0000 C   0  0  0  0  0  2  0  0  0  0  0  0
   27.2798   -6.7500    0.0000 P   0  0  0  0  0  0  0  0  0  0  0  0
   27.2798   -8.2500    0.0000 S   0  0  0  0  0  0  0  0  0  0  0  0
   25.9808   -9.0000    0.0000 C   0  0  0  0  0  0  0  0  0  0  0  0
   25.9808  -10.5000    0.0000 C   0  0  0  0  0  2  0  0  0  0  0  0
   24.6817   -8.2500    0.0000 C   0  0  0  0  0  0  0  0  0  0  0  0
   23.3827   -9.0000    0.0000 C   0  0  0  0  0  0  0  0  0  0  0  0
   22.0836   -8.2500    0.0000 C   0  0  0  0  0  0  0  0  0  0  0  0
   20.7846   -9.0000    0.0000 C   0  0  0  0  0  0  0  0  0  0  0  0
   20.0346   -7.7010    0.0000 C   0  0  0  0  0  2  0  0  0  0  0  0
   21.5346  -10.2990    0.0000 C   0  0  0  0  0  0  0  0  0  0  0  0
   20.7846  -11.5981    0.0000 C   0  0  0  0  0  3  0  0  0  0  0  0
   21.5346  -12.8971    0.0000 C   0  0  0  0  0  3  0  0  0  0  0  0
   20.7846  -14.1962    0.0000 C   0  0  0  0  0  3  0  0  0  0  0  0
   21.5346  -15.4952    0.0000 C   0  0  0  0  0  0  0  0  0  0  0  0
   22.8336  -14.7452    0.0000 C   0  0  0  0  0  0  0  0  0  0  0  0
   20.2356  -16.2452    0.0000 C   0  0  0  0  0  0  0  0  0  0  0  0
   22.2846  -16.7942    0.0000 C   0  0  0  0  0  0  0  0  0  0  0  0
   23.7846  -16.7942    0.0000 C   0  0  0  0  0  3  0  0  0  0  0  0
   24.5346  -18.0933    0.0000 C   0  0  0  0  0  2  0  0  0  0  0  0
   19.4856   -9.7500    0.0000 C   0  0  0  0  0  0  0  0  0  0  0  0
   19.4856  -11.2500    0.0000 C   0  0  0  0  0  0  0  0  0  0  0  0
   18.1865  -12.0000    0.0000 C   0  0  0  0  0  3  0  0  0  0  0  0
   18.1865  -13.5000    0.0000 C   0  0  0  0  0  3  0  0  0  0  0  0
   16.8875  -14.2500    0.0000 S   0  0  0  0  0  0  0  0  0  0  0  0
   16.8875  -15.7500    0.0000 N   0  0  0  0  0  0  0  0  0  0  0  0
   15.5885  -16.5000    0.0000 S   0  0  0  0  0  0  0  0  0  0  0  0
   15.5885  -18.0000    0.0000 C   0  0  0  0  0  0  0  0  0  0  0  0
   14.2894  -18.7500    0.0000 C   0  0  0  0  0  0  0  0  0  0  0  0
   14.2894  -20.2500    0.0000 C   0  0  0  0  0  0  0  0  0  0  0  0
   12.9904  -21.0000    0.0000 C   0  0  0  0  0  2  0  0  0  0  0  0
   15.5885  -21.0000    0.0000 C   0  0  0  0  0  0  0  0  0  0  0  0
   15.5885  -22.5000    0.0000 C   0  0  0  0  0  0  0  0  0  0  0  0
   16.8875  -23.2500    0.0000 C   0  0  0  0  0  0  0  0  0  0  0  0
   16.8875  -24.7500    0.0000 C   0  0  0  0  0  0  0  0  0  0  0  0
   18.1865  -22.5000    0.0000 C   0  0  0  0  0  3  0  0  0  0  0  0
   19.4856  -23.2500    0.0000 C   0  0  0  0  0  0  0  0  0  0  0  0
   20.7846  -22.5000    0.0000 C   0  0  0  0  0  0  0  0  0  0  0  0
   22.0836  -23.2500    0.0000 C   0  0  0  0  0  3  0  0  0  0  0  0
   23.3827  -22.5000    0.0000 C   0  0  0  0  0  3  0  0  0  0  0  0
   24.6817  -23.2500    0.0000 N   0  0  0  0  0  0  0  0  0  0  0  0
   25.9808  -22.5000    0.0000 S   0  0  0  0  0  0  0  0  0  0  0  0
   27.2798  -23.2500    0.0000 C   0  0  0  0  0  0  0  0  0  0  0  0
   28.5788  -22.5000    0.0000 C   0  0  0  0  0  0  0  0  0  0  0  0
   29.8779  -23.2500    0.0000 C   0  0  0  0  0  0  0  0  0  0  0  0
   28.5788  -21.0000    0.0000 C   0  0  0  0  0  3  0  0  0  0  0  0
   29.8779  -20.2500    0.0000 C   0  0  0  0  0  0  0  0  0  0  0  0
   29.8779  -18.7500    0.0000 C   0  0  0  0  0  3  0  0  0  0  0  0
   31.1769  -18.0000    0.0000 C   0  0  0  0  0  3  0  0  0  0  0  0
   31.1769  -16.5000    0.0000 C   0  0  0  0  0  0  0  0  0  0  0  0
  1  2  1  0
  2  3  1  0
  2  4  1  0
  4  5  1  0
  5  6  1  0
  6  7  1  0
  7  8  1  1
  7  9  1  0
  9 10  1  0
 10 11  1  0
 11 12  1  0
 12 13  1  0
 13 14  1  1
 13 15  1  0
 15 16  1  0
 16 17  1  0
 16 18  1  0
 18 19  1  0
 19 20  1  0
 20 21  1  0
 21 22  1  0
 21 23  1  0
 23 24  1  0
 24 25  1  0
 25 26  1  0
 26 27  1  0
 27 28  1  0
 28 29  1  1
 28 30  1  0
 30 31  1  0
 31 32  1  0
 32 33  1  0
 33 34  1  0
 34 35  1  0
 35 36  1  0
 36 37  1  0
 36 38  1  0
 38 39  1  0
 39 40  1  0
 40 41  1  0
 40 42  1  0
 42 43  1  0
 43 44  1  0
 44 45  1  0
 45 46  1  0
 45 47  1  0
 47 48  1  0
 48 49  1  0
 49 50  1  0
 50 51  1  0
 51 52  1  0
 51 53  1  0
 51 54  1  0
 54 55  1  0
 55 56  1  0
 45 57  1  0
 57 58  1  0
 58 59  1  0
 59 60  1  0
 60 61  1  0
 61 62  1  0
 62 63  1  0
 63 64  1  0
 64 65  1  0
 65 66  1  0
 66 67  1  6
 66 68  1  0
 68 69  1  0
 69 70  1  0
 70 71  1  0
 70 72  1  0
 72 73  1  0
 73 74  1  0
 74 75  1  0
 75 76  1  0
 76 77  1  0
 77 78  1  0
 78 79  1  0
 79 80  1  0
 80 81  1  6
 80 82  1  0
 82 83  1  0
 83 84  1  0
 84 85  1  0
 85 86  1  0
M  RAD  8   9   2  12   2  14   3  18   2  24   2  26   2  30   2  34   2
M  RAD  8  35   3  37   3  41   3  46   3  48   2  49   2  50   2  55   2
M  RAD  8  56   3  59   2  60   2  67   3  72   2  75   2  76   2  82   2
M  RAD  2  84   2  85   2
M  END
$$$$
