
     RDKit          3D

 15 16  0  0  0  0  0  0  0  0999 V2000
   -1.2447   -1.2825   -1.5881 C   0  0  0  0  0  0  0  0  0  0  0  0
   -0.3220   -0.0981   -1.3671 C   0  0  1  0  0  0  0  0  0  0  0  0
   -1.1690    1.1676   -1.4697 C   0  0  0  0  0  0  0  0  0  0  0  0
   -0.5400    2.1266   -0.6569 O   0  0  0  0  0  0  0  0  0  0  0  0
   -2.3755    0.8488   -0.8724 O   0  0  0  0  0  0  0  0  0  0  0  0
   -2.3178    0.5670    0.4517 C   0  0  2  0  0  0  0  0  0  0  0  0
   -2.6435    1.7589    1.1450 O   0  0  0  0  0  0  0  0  0  0  0  0
   -1.0881    0.0137    1.0086 C   0  0  1  0  0  0  0  0  0  0  0  0
   -1.3808   -1.1856    1.6732 O   0  0  0  0  0  0  0  0  0  0  0  0
    0.0675   -0.1589    0.1147 C   0  0  1  0  0  0  0  0  0  0  0  0
    0.7568   -1.4216    0.3838 N   0  0  0  0  0  0  0  0  0  0  0  0
    1.9967   -1.4554   -0.3801 C   0  0  0  0  0  3  0  0  0  0  0  0
    3.1825   -1.0748    0.5125 C   0  0  0  0  0  0  0  0  0  0  0  0
    3.3389    0.0264    1.2736 C   0  0  0  0  0  0  0  0  0  0  0  0
    3.7390    0.1678   -0.0377 O   0  0  0  0  0  0  0  0  0  0  0  0
  2  1  1  1
  2  3  1  0
  3  4  1  0
  3  5  1  0
  5  6  1  0
  6  7  1  1
  6  8  1  0
  8  9  1  6
  8 10  1  0
 10 11  1  6
 11 12  1  0
 12 13  1  0
 13 14  1  0
 13 15  1  0
 10  2  1  0
 15 14  1  0
M  RAD  1  12   2
M  END
$$$$
