
     RDKit          3D

 26 26  0  0  0  0  0  0  0  0999 V2000
    6.3270    0.9980    1.0205 C   0  0  0  0  0  0  0  0  0  0  0  0
    5.4233    2.2072    0.9705 C   0  0  0  0  0  0  0  0  0  0  0  0
    5.0016    2.5279    2.3850 C   0  0  0  0  0  0  0  0  0  0  0  0
    4.1754    1.8731    0.1849 C   0  0  0  0  0  0  0  0  0  0  0  0
    3.4698    0.7351    0.8683 C   0  0  0  0  0  0  0  0  0  0  0  0
    4.3713   -0.4734    0.9244 C   0  0  0  0  0  0  0  0  0  0  0  0
    4.7227   -0.8647   -0.4959 C   0  0  1  0  0  0  0  0  0  0  0  0
    5.6382   -2.0894   -0.4842 C   0  0  0  0  0  0  0  0  0  0  0  0
    3.4348   -1.2319   -1.2025 C   0  0  0  0  0  3  0  0  0  0  0  0
    2.8146   -2.3911   -0.4509 C   0  0  0  0  0  0  0  0  0  0  0  0
    1.5188   -2.8059   -1.1115 C   0  0  0  0  0  0  0  0  0  0  0  0
    0.5867   -1.6258   -1.0904 C   0  0  1  0  0  0  0  0  0  0  0  0
    1.1547   -0.4282   -1.8351 C   0  0  0  0  0  0  0  0  0  0  0  0
   -0.7770   -1.9668   -1.6148 C   0  0  0  0  0  0  0  0  0  0  0  0
   -1.6693   -0.7699   -1.5767 C   0  0  0  0  0  0  0  0  0  0  0  0
   -1.8339   -0.2436   -0.1709 C   0  0  0  0  0  0  0  0  0  0  0  0
   -0.5442    0.1709    0.4531 C   0  0  0  0  0  2  0  0  0  0  0  0
   -2.5864   -1.2133    0.7105 C   0  0  0  0  0  0  0  0  0  0  0  0
   -3.9578   -1.5100    0.2119 C   0  0  0  0  0  0  0  0  0  0  0  0
   -4.8598   -0.3366    0.0997 C   0  0  0  0  0  0  0  0  0  0  0  0
   -5.0922    0.3770    1.4164 C   0  0  0  0  0  0  0  0  0  0  0  0
   -4.2896    0.7896   -0.7441 C   0  0  0  0  0  3  0  0  0  0  0  0
   -5.3219    1.8862   -0.4649 C   0  0  0  0  0  0  0  0  0  0  0  0
   -4.7325    3.2586   -0.6989 C   0  0  0  0  0  0  0  0  0  0  0  0
   -5.7380    1.6668    0.9522 C   0  0  1  0  0  0  0  0  0  0  0  0
   -7.2362    1.4602    0.9935 C   0  0  0  0  0  0  0  0  0  0  0  0
  1  2  1  0
  2  3  1  0
  2  4  1  0
  4  5  1  0
  5  6  1  0
  6  7  1  0
  7  8  1  1
  7  9  1  0
  9 10  1  0
 10 11  1  0
 11 12  1  0
 12 13  1  6
 12 14  1  0
 14 15  1  0
 15 16  1  0
 16 17  1  0
 16 18  1  0
 18 19  1  0
 19 20  1  0
 20 21  1  0
 20 22  1  0
 22 23  1  0
 23 24  1  0
 23 25  1  0
 25 26  1  6
 25 21  1  0
M  RAD  3   9   2  17   3  22   2
M  END
$$$$
