
     RDKit          3D

 29 29  0  0  0  0  0  0  0  0999 V2000
    9.2329   -0.9888   -1.3126 C   0  0  0  0  0  0  0  0  0  0  0  0
    7.8320   -0.5277   -1.0232 C   0  0  0  0  0  0  0  0  0  0  0  0
    7.3984   -0.9511    0.3571 C   0  0  0  0  0  0  0  0  0  0  0  0
    7.7745    0.9931   -1.0802 C   0  0  0  0  0  0  0  0  0  0  0  0
    6.3512    1.4261   -0.7845 C   0  0  0  0  0  0  0  0  0  0  0  0
    5.4616    0.8076   -1.8419 C   0  0  0  0  0  0  0  0  0  0  0  0
    4.0046    1.2130   -1.5920 C   0  0  1  0  0  0  0  0  0  0  0  0
    3.1529    0.5749   -2.6687 C   0  0  0  0  0  0  0  0  0  0  0  0
    3.6270    0.6960   -0.2193 C   0  0  0  0  0  3  0  0  0  0  0  0
    2.2012    1.0722    0.0686 C   0  0  0  0  0  0  0  0  0  0  0  0
    1.7897    0.5676    1.4407 C   0  0  0  0  0  0  0  0  0  0  0  0
    1.9438   -0.9365    1.4172 C   0  0  0  0  0  3  0  0  0  0  0  0
    1.0401   -1.5184    0.3274 C   0  0  0  0  0  3  0  0  0  0  0  0
   -0.0804   -0.5027    0.1062 C   0  0  0  0  0  0  0  0  0  0  0  0
   -0.7965   -0.3630    1.4384 C   0  0  0  0  0  0  0  0  0  0  0  0
   -1.9376    0.6143    1.3783 C   0  0  0  0  0  3  0  0  0  0  0  0
   -2.9921    0.1850    0.3500 C   0  0  0  0  0  0  0  0  0  0  0  0
   -4.0707    1.2354    0.3859 C   0  0  1  0  0  0  0  0  0  0  0  0
   -3.5920    2.5588    0.8839 C   0  0  0  0  0  2  0  0  0  0  0  0
   -4.8682    1.3323   -0.8661 C   0  0  0  0  0  0  0  0  0  0  0  0
   -4.5454    0.3061   -1.8975 C   0  0  0  0  0  0  0  0  0  0  0  0
   -6.3481    1.2591   -0.4691 C   0  0  0  0  0  0  0  0  0  0  0  0
   -6.4896    0.6927    0.9429 C   0  0  0  0  0  0  0  0  0  0  0  0
   -6.0371   -0.7410    0.9501 C   0  0  0  0  0  3  0  0  0  0  0  0
   -4.7559   -0.9472    1.7185 C   0  0  1  0  0  0  0  0  0  0  0  0
   -4.9020   -2.1076    2.6467 C   0  0  0  0  0  0  0  0  0  0  0  0
   -3.5649   -1.1212    0.8000 C   0  0  1  0  0  0  0  0  0  0  0  0
   -3.9417   -2.0419   -0.3230 C   0  0  0  0  0  0  0  0  0  0  0  0
   -2.8878   -2.3831   -1.1340 O   0  0  0  0  0  0  0  0  0  0  0  0
  1  2  1  0
  2  3  1  0
  2  4  1  0
  4  5  1  0
  5  6  1  0
  6  7  1  0
  7  8  1  6
  7  9  1  0
  9 10  1  0
 10 11  1  0
 11 12  1  0
 12 13  1  0
 13 14  1  0
 14 15  1  0
 15 16  1  0
 16 17  1  0
 17 18  1  0
 18 19  1  6
 18 20  1  0
 20 21  1  0
 20 22  1  0
 22 23  1  0
 23 24  1  0
 24 25  1  0
 25 26  1  6
 25 27  1  0
 27 28  1  6
 28 29  1  0
 27 17  1  0
M  RAD  6   9   2  12   2  13   2  16   2  19   3  24   2
M  END
$$$$
