
     RDKit          3D

 42 44  0  0  0  0  0  0  0  0999 V2000
    0.2913    2.0375    1.5196 C   0  0  0  0  0  0  0  0  0  0  0  0
   -0.8402    1.5764    0.6401 C   0  0  0  0  0  0  0  0  0  0  0  0
   -0.9012    2.4364   -0.5903 C   0  0  0  0  0  0  0  0  0  0  0  0
   -0.6980    0.1380    0.3098 C   0  0  0  0  0  0  0  0  0  0  0  0
   -1.5955   -0.7851    0.6924 C   0  0  0  0  0  0  0  0  0  0  0  0
   -2.8233   -0.4881    1.4815 C   0  0  0  0  0  0  0  0  0  0  0  0
   -4.0924   -0.8428    0.7869 C   0  0  0  0  0  0  0  0  0  0  0  0
   -4.2094   -0.0811   -0.4920 C   0  0  1  0  0  0  0  0  0  0  0  0
   -5.4116   -0.4524   -1.0974 O   0  0  0  0  0  0  0  0  0  0  0  0
   -4.1285    1.4168   -0.2911 C   0  0  0  0  0  0  0  0  0  0  0  0
   -5.2170    1.9337    0.6051 C   0  0  1  0  0  0  0  0  0  0  0  0
   -5.2067    1.3932    1.8693 O   0  0  0  0  0  0  0  0  0  0  0  0
   -5.0385    3.4355    0.7164 C   0  0  0  0  0  0  0  0  0  0  0  0
   -5.1416    4.0631   -0.6464 C   0  0  0  0  0  0  0  0  0  0  0  0
   -5.0177    5.3025   -0.7407 O   0  0  0  0  0  0  0  0  0  0  0  0
   -5.3693    3.2558   -1.7519 O   0  0  0  0  0  1  0  0  0  0  0  0
   -1.1530   -2.0798    0.2050 C   0  0  0  0  0  0  0  0  0  0  0  0
   -1.8327   -3.3669    0.3980 C   0  0  0  0  0  0  0  0  0  0  0  0
   -1.3069   -4.5327   -0.1207 C   0  0  0  0  0  0  0  0  0  0  0  0
   -1.9329   -5.7495    0.0540 C   0  0  0  0  0  0  0  0  0  0  0  0
   -3.1150   -5.8613    0.7557 C   0  0  0  0  0  0  0  0  0  0  0  0
   -3.7903   -7.1837    0.9425 C   0  0  0  0  0  0  0  0  0  0  0  0
   -3.6472   -4.7018    1.2772 C   0  0  0  0  0  0  0  0  0  0  0  0
   -3.0149   -3.4899    1.0978 C   0  0  0  0  0  0  0  0  0  0  0  0
   -0.0223   -1.9427   -0.4538 C   0  0  0  0  0  0  0  0  0  0  0  0
    0.3713   -0.5297   -0.4518 C   0  0  2  0  0  0  0  0  0  0  0  0
    1.6874   -0.2221    0.1310 C   0  0  0  0  0  0  0  0  0  0  0  0
    1.9279   -0.5697    1.4191 O   0  0  0  0  0  0  0  0  0  0  0  0
    1.8303   -1.9085    1.6993 C   0  0  0  0  0  0  0  0  0  0  0  0
    2.8378   -2.6503    0.8465 C   0  0  0  0  0  2  0  0  0  0  0  0
    2.2336    1.0670   -0.3468 C   0  0  0  0  0  0  0  0  0  0  0  0
    3.5710    1.4198    0.2205 C   0  0  1  0  0  0  0  0  0  0  0  0
    3.6007    1.5339    1.5888 O   0  0  0  0  0  0  0  0  0  0  0  0
    4.6221    0.5175   -0.3503 C   0  0  0  0  0  0  0  0  0  0  0  0
    4.6117    0.7237   -1.8654 C   0  0  0  0  0  0  0  0  0  0  0  0
    4.9306    2.1997   -2.0856 C   0  0  0  0  0  0  0  0  0  0  0  0
    6.2964    2.4348   -1.4731 C   0  0  0  0  0  0  0  0  0  0  0  0
    7.3135    1.5499   -2.1595 C   0  0  2  0  0  0  0  0  0  0  0  0
    7.7684    0.4695   -1.1995 C   0  0  0  0  0  2  0  0  0  0  0  0
    6.3055    2.3863   -0.0882 O   0  0  0  0  0  0  0  0  0  0  0  0
    7.1151    3.5157   -2.1065 C   0  0  0  0  0  0  0  0  0  0  0  0
    8.1915    2.6312   -2.1543 O   0  0  0  0  0  0  0  0  0  0  0  0
  1  2  1  0
  2  3  1  0
  2  4  1  0
  4  5  2  0
  5  6  1  0
  6  7  1  0
  7  8  1  0
  8  9  1  1
  8 10  1  0
 10 11  1  0
 11 12  1  1
 11 13  1  0
 13 14  1  0
 14 15  2  0
 14 16  1  0
  5 17  1  0
 17 18  1  0
 18 19  2  0
 19 20  1  0
 20 21  2  0
 21 22  1  0
 21 23  1  0
 23 24  2  0
 17 25  2  0
 25 26  1  0
 26 27  1  1
 27 28  1  0
 28 29  1  0
 29 30  1  0
 27 31  1  0
 31 32  1  0
 32 33  1  1
 32 34  1  0
 34 35  1  0
 35 36  1  0
 36 37  1  0
 37 38  1  0
 38 39  1  1
 37 40  1  0
 37 41  1  0
 41 42  1  0
 26  4  1  0
 24 18  1  0
 42 38  1  0
M  CHG  1  16  -1
M  RAD  2  30   3  39   3
M  END
$$$$
