
     RDKit          3D

 13 14  0  0  0  0  0  0  0  0999 V2000
   -0.3560    1.2959   -1.2848 C   0  0  0  0  0  0  0  0  0  0  0  0
   -1.6941    1.5562   -1.1532 O   0  0  0  0  0  0  0  0  0  0  0  0
   -2.0737    1.5570    0.1963 C   0  0  0  0  0  3  0  0  0  0  0  0
   -2.7580    0.3720    0.4701 O   0  0  0  0  0  0  0  0  0  0  0  0
   -2.3256   -0.5968   -0.4241 C   0  0  2  0  0  0  0  0  0  0  0  0
   -3.2166   -1.8049   -0.4514 C   0  0  0  0  0  0  0  0  0  0  0  0
   -0.8903   -0.9076   -0.2004 C   0  0  0  0  0  3  0  0  0  0  0  0
    0.0418   -0.1274   -1.0826 C   0  0  2  0  0  0  0  0  0  0  0  0
    1.4571   -0.1537   -0.5453 C   0  0  0  0  0  3  0  0  0  0  0  0
    1.5017    0.5941    0.7699 C   0  0  0  0  0  0  0  0  0  0  0  0
    2.8566    0.6252    1.3821 C   0  0  0  0  0  0  0  0  0  0  0  0
    3.5377   -0.6715    1.7384 C   0  0  0  0  0  0  0  0  0  0  0  0
    3.9194   -0.0024    0.5851 O   0  0  0  0  0  0  0  0  0  0  0  0
  1  2  1  0
  2  3  1  0
  3  4  1  0
  4  5  1  0
  5  6  1  1
  5  7  1  0
  7  8  1  0
  8  9  1  1
  9 10  1  0
 10 11  1  0
 11 12  1  0
 11 13  1  0
  8  1  1  0
 13 12  1  0
M  RAD  3   3   2   7   2   9   2
M  END
$$$$
