
     RDKit          3D

 30 30  0  0  0  0  0  0  0  0999 V2000
    3.2416   -2.4121   -0.7405 C   0  0  0  0  0  0  0  0  0  0  0  0
    4.5472   -1.8531   -0.3307 C   0  0  0  0  0  0  0  0  0  0  0  0
    5.0016   -2.5034    0.9711 C   0  0  0  0  0  0  0  0  0  0  0  0
    4.3373   -0.3739   -0.1205 C   0  0  0  0  0  0  0  0  0  0  0  0
    3.8608   -0.0063    1.0417 C   0  0  0  0  0  0  0  0  0  0  0  0
    3.5827    1.3861    1.4501 C   0  0  0  0  0  0  0  0  0  0  0  0
    4.8776    2.0117    1.8947 C   0  0  0  0  0  0  0  0  0  0  0  0
    2.9727    2.1040    0.2898 C   0  0  0  0  0  0  0  0  0  0  0  0
    1.9440    2.8461    0.3917 N   0  0  0  0  0  4  0  0  0  0  0  0
    1.3514    3.5383   -0.7127 C   0  0  0  0  0  0  0  0  0  0  0  0
    1.3391    3.0032    1.6785 C   0  0  0  0  0  0  0  0  0  0  0  0
   -0.1452    2.7444    1.6129 C   0  0  0  0  0  0  0  0  0  0  0  0
   -0.5310    1.9248    0.6137 C   0  0  0  0  0  0  0  0  0  0  0  0
   -1.9772    1.6344    0.4996 C   0  0  0  0  0  0  0  0  0  0  0  0
   -2.6959    2.7607   -0.0389 N   0  0  0  0  0  0  0  0  0  0  0  0
   -2.3972    3.2855   -1.3273 C   0  0  0  0  0  0  0  0  0  0  0  0
   -3.3308    3.8651   -2.0507 C   0  0  0  0  0  0  0  0  0  0  0  0
   -2.9737    4.3965   -3.3856 C   0  0  0  0  0  0  0  0  0  0  0  0
   -2.2034    0.4314   -0.3914 C   0  0  0  0  0  0  0  0  0  0  0  0
   -3.3380   -0.3335    0.1695 C   0  0  0  0  0  0  0  0  0  0  0  0
   -3.5046   -1.6129   -0.0876 C   0  0  0  0  0  0  0  0  0  0  0  0
   -4.6923   -2.2845    0.5370 C   0  0  0  0  0  0  0  0  0  0  0  0
   -4.1609   -3.3946    1.4085 C   0  0  0  0  0  0  0  0  0  0  0  0
   -5.2647   -4.1498    2.0960 C   0  0  0  0  0  0  0  0  0  0  0  0
   -2.5714   -2.3104   -0.9348 C   0  0  0  0  0  0  0  0  0  0  0  0
   -1.2822   -2.0378   -0.9745 C   0  0  0  0  0  0  0  0  0  0  0  0
   -0.4592   -2.8435   -1.8960 C   0  0  0  0  0  0  0  0  0  0  0  0
    0.6901   -3.3829   -1.5153 C   0  0  0  0  0  0  0  0  0  0  0  0
    1.2395   -3.2347   -0.1772 C   0  0  0  0  0  0  0  0  0  0  0  0
    2.5418   -3.1988    0.0289 C   0  0  0  0  0  0  0  0  0  0  0  0
  1  2  1  0
  2  3  1  0
  2  4  1  0
  4  5  2  3
  5  6  1  0
  6  7  1  0
  6  8  1  0
  8  9  2  3
  9 10  1  0
  9 11  1  0
 11 12  1  0
 12 13  2  3
 13 14  1  0
 14 15  1  0
 15 16  1  0
 16 17  2  3
 17 18  1  0
 14 19  1  0
 19 20  1  0
 20 21  2  3
 21 22  1  0
 22 23  1  0
 23 24  1  0
 21 25  1  0
 25 26  2  3
 26 27  1  0
 27 28  2  3
 28 29  1  0
 29 30  2  0
  1 30  2  0
M  CHG  1   9   1
M  END
$$$$
