
     RDKit          3D

 83 83  0  0  0  0  0  0  0  0999 V2000
  -15.5777    8.4440    1.7424 C   0  0  0  0  0  0  0  0  0  0  0  0
  -15.5780    6.9315    1.9011 C   0  0  0  0  0  0  0  0  0  0  0  0
  -15.0878    6.5113    3.2659 C   0  0  0  0  0  0  0  0  0  0  0  0
  -14.7561    6.2937    0.7845 C   0  0  0  0  0  0  0  0  0  0  0  0
  -14.8058    4.7834    1.0147 C   0  0  0  0  0  0  0  0  0  0  0  0
  -13.9929    4.0899   -0.0836 C   0  0  0  0  0  0  0  0  0  0  0  0
  -12.5541    4.5624   -0.0404 C   0  0  1  0  0  0  0  0  0  0  0  0
  -11.9081    4.2479    1.3021 C   0  0  0  0  0  0  0  0  0  0  0  0
  -11.7889    3.9287   -1.1570 C   0  0  0  0  0  3  0  0  0  0  0  0
  -11.7770    2.4172   -1.0876 C   0  0  0  0  0  0  0  0  0  0  0  0
  -10.9725    1.9001   -2.2606 C   0  0  0  0  0  0  0  0  0  0  0  0
   -9.5588    2.4766   -2.1223 C   0  0  2  0  0  0  0  0  0  0  0  0
   -9.6240    4.0019   -2.1439 C   0  0  0  0  0  0  0  0  0  0  0  0
   -8.7834    1.9626   -3.3163 C   0  0  0  0  0  0  0  0  0  0  0  0
   -8.7844    0.4541   -3.2566 C   0  0  0  0  0  0  0  0  0  0  0  0
  -10.1809   -0.1215   -3.2955 C   0  0  0  0  0  0  0  0  0  0  0  0
   -8.0585   -0.0007   -2.0116 C   0  0  0  0  0  0  0  0  0  0  0  0
   -8.7842    0.5698   -0.8144 C   0  0  0  0  0  0  0  0  0  0  0  0
   -8.0622    0.1176    0.4130 C   0  0  0  0  0  0  0  0  0  0  0  0
   -8.6443    0.5899    1.7035 C   0  0  0  0  0  0  0  0  0  0  0  0
   -9.8409    1.4935    1.5462 C   0  0  0  0  0  0  0  0  0  0  0  0
  -10.9485    1.1000    2.5184 C   0  0  0  0  0  0  0  0  0  0  0  0
  -11.6319   -0.1783    2.1082 C   0  0  0  0  0  0  0  0  0  0  0  0
  -12.7979    0.0523    1.1874 C   0  0  0  0  0  0  0  0  0  0  0  0
  -13.8852   -0.9715    1.4102 C   0  0  0  0  0  0  0  0  0  0  0  0
  -13.5007   -2.3503    0.9578 C   0  0  0  0  0  0  0  0  0  0  0  0
  -12.2895   -2.7965    1.7517 C   0  0  0  0  0  0  0  0  0  0  0  0
  -13.0498   -2.2716   -0.5002 C   0  0  0  0  0  0  0  0  0  0  0  0
  -11.7752   -3.0395   -0.7230 C   0  0  0  0  0  0  0  0  0  0  0  0
  -11.8292   -4.3725   -0.0053 C   0  0  0  0  0  0  0  0  0  0  0  0
  -10.5816   -5.1534   -0.3738 C   0  0  0  0  0  0  0  0  0  0  0  0
   -9.3394   -4.5840    0.2667 C   0  0  0  0  0  0  0  0  0  0  0  0
   -8.9940   -3.2543   -0.3978 C   0  0  0  0  0  0  0  0  0  0  0  0
   -8.9634   -2.1336    0.5903 C   0  0  0  0  0  3  0  0  0  0  0  0
   -7.6971   -1.3339    0.3823 C   0  0  0  0  0  0  0  0  0  0  0  0
   -6.6559   -1.6715    1.4364 C   0  0  0  0  0  0  0  0  0  0  0  0
   -5.3935   -0.8941    1.2395 C   0  0  0  0  0  0  0  0  0  0  0  0
   -4.7168   -1.1196   -0.0727 C   0  0  0  0  0  0  0  0  0  0  0  0
   -4.3557   -2.5678   -0.2076 C   0  0  0  0  0  3  0  0  0  0  0  0
   -3.4142   -3.0375    0.8929 C   0  0  0  0  0  0  0  0  0  0  0  0
   -3.1849   -4.4419    0.6977 N   0  0  0  0  0  0  0  0  0  0  0  0
   -2.1723   -2.2045    0.7950 C   0  0  0  0  0  0  0  0  0  0  0  0
   -1.1348   -2.5594    1.8333 C   0  0  0  0  0  0  0  0  0  0  0  0
   -0.7819   -4.0332    1.5909 C   0  0  0  0  0  0  0  0  0  0  0  0
   -0.2438   -4.0841    0.1654 C   0  0  0  0  0  0  0  0  0  0  0  0
    0.9521   -3.1940    0.1067 C   0  0  0  0  0  0  0  0  0  0  0  0
    2.0659   -3.5687    1.0257 C   0  0  0  0  0  0  0  0  0  0  0  0
    1.3658   -2.7867   -1.2678 C   0  0  0  0  0  0  0  0  0  0  0  0
    2.5803   -1.8950   -1.1681 C   0  0  0  0  0  0  0  0  0  0  0  0
    3.0379   -1.4540   -2.5436 C   0  0  0  0  0  0  0  0  0  0  0  0
    3.6909   -2.5974   -0.4149 C   0  0  0  0  0  0  0  0  0  0  0  0
    4.1050   -3.8902   -1.1234 C   0  0  0  0  0  0  0  0  0  0  0  0
    4.9311   -1.7361   -0.3258 C   0  0  0  0  0  3  0  0  0  0  0  0
    5.9701   -2.5502    0.4489 C   0  0  0  0  0  2  0  0  0  0  0  0
    7.2872   -2.4686   -0.2961 C   0  0  0  0  0  0  0  0  0  0  0  0
    7.2784   -3.5627   -1.3384 C   0  0  0  0  0  0  0  0  0  0  0  0
    7.3180   -1.1070   -0.9956 C   0  0  0  0  0  0  0  0  0  0  0  0
    8.4604   -2.6623    0.6057 C   0  0  0  0  0  0  0  0  0  0  0  0
    8.5582   -1.6542    1.7020 C   0  0  0  0  0  0  0  0  0  0  0  0
    7.3252   -1.6811    2.6093 C   0  0  0  0  0  2  0  0  0  0  0  0
    9.7438   -1.9998    2.5778 C   0  0  0  0  0  2  0  0  0  0  0  0
    8.7064   -0.2477    1.1070 C   0  0  0  0  0  0  0  0  0  0  0  0
    9.9724   -0.2627    0.2780 C   0  0  0  0  0  0  0  0  0  0  0  0
   11.1747   -0.6014    1.1439 C   0  0  0  0  0  3  0  0  0  0  0  0
   12.4447   -0.6265    0.3544 C   0  0  0  0  0  0  0  0  0  0  0  0
   12.4133   -1.6495   -0.7593 C   0  0  0  0  0  0  0  0  0  0  0  0
   12.2006   -3.0070   -0.1232 C   0  0  0  0  0  0  0  0  0  0  0  0
   13.6608   -1.6805   -1.5643 C   0  0  2  0  0  0  0  0  0  0  0  0
   14.9002   -2.0055   -0.7954 C   0  0  0  0  0  0  0  0  0  0  0  0
   13.8145   -0.5431   -2.5216 C   0  0  0  0  0  0  0  0  0  0  0  0
   13.8329    0.8021   -1.8764 C   0  0  0  0  0  0  0  0  0  0  0  0
   14.9492    0.9895   -0.8879 C   0  0  0  0  0  3  0  0  0  0  0  0
   16.3079    0.8252   -1.5209 C   0  0  0  0  0  0  0  0  0  0  0  0
   16.7127    2.0795   -1.9745 O   0  0  0  0  0  0  0  0  0  0  0  0
   16.7624    2.9187   -0.8614 C   0  0  0  0  0  0  0  0  0  0  0  0
   17.7654    2.3193    0.1049 C   0  0  0  0  0  3  0  0  0  0  0  0
   19.1238    2.9273   -0.2559 C   0  0  0  0  0  0  0  0  0  0  0  0
   18.9919    4.4208   -0.0887 C   0  0  0  0  0  0  0  0  0  0  0  0
   18.6223    4.6780    1.3741 C   0  0  2  0  0  0  0  0  0  0  0  0
   18.4739    6.1686    1.6108 C   0  0  0  0  0  0  0  0  0  0  0  0
   19.7913    4.1957    2.2169 C   0  0  0  0  0  3  0  0  0  0  0  0
   21.0053    4.9638    1.8255 C   0  0  0  0  0  0  0  0  0  0  0  0
   22.1606    4.3903    1.5508 C   0  0  0  0  0  0  0  0  0  0  0  0
  1  2  1  0
  2  3  1  0
  2  4  1  0
  4  5  1  0
  5  6  1  0
  6  7  1  0
  7  8  1  1
  7  9  1  0
  9 10  1  0
 10 11  1  0
 11 12  1  0
 12 13  1  6
 12 14  1  0
 14 15  1  0
 15 16  1  0
 15 17  1  0
 17 18  1  0
 18 19  1  0
 19 20  1  0
 20 21  1  0
 21 22  1  0
 22 23  1  0
 23 24  1  0
 24 25  1  0
 25 26  1  0
 26 27  1  0
 26 28  1  0
 28 29  1  0
 29 30  1  0
 30 31  1  0
 31 32  1  0
 32 33  1  0
 33 34  1  0
 34 35  1  0
 35 36  1  0
 36 37  1  0
 37 38  1  0
 38 39  1  0
 39 40  1  0
 40 41  1  0
 40 42  1  0
 42 43  1  0
 43 44  1  0
 44 45  1  0
 45 46  1  0
 46 47  1  0
 46 48  1  0
 48 49  1  0
 49 50  1  0
 49 51  1  0
 51 52  1  0
 51 53  1  0
 53 54  1  0
 54 55  1  0
 55 56  1  0
 55 57  1  0
 55 58  1  0
 58 59  1  0
 59 60  1  0
 59 61  1  0
 59 62  1  0
 62 63  1  0
 63 64  1  0
 64 65  1  0
 65 66  1  0
 66 67  1  0
 66 68  1  0
 68 69  1  1
 68 70  1  0
 70 71  1  0
 71 72  1  0
 72 73  1  0
 73 74  1  0
 74 75  1  0
 75 76  1  0
 76 77  1  0
 77 78  1  0
 78 79  1  0
 79 80  1  6
 79 81  1  0
 81 82  1  0
 82 83  2  0
 35 19  1  0
M  RAD  8   9   2  34   2  39   2  53   2  54   3  60   3  61   3  64   2
M  RAD  3  72   2  76   2  81   2
M  END
$$$$
