
     RDKit          2D

 83 82  0  0  0  0  0  0  0  0999 V2000
    0.0000    0.0000    0.0000 C   0  0  0  0  0  0  0  0  0  0  0  0
    1.2990    0.7500    0.0000 C   0  0  0  0  0  0  0  0  0  0  0  0
    2.5981   -0.0000    0.0000 C   0  0  0  0  0  0  0  0  0  0  0  0
    3.8971    0.7500    0.0000 C   0  0  0  0  0  0  0  0  0  0  0  0
    2.5981   -1.5000    0.0000 C   0  0  0  0  0  0  0  0  0  0  0  0
    1.2990   -2.2500    0.0000 O   0  0  0  0  0  0  0  0  0  0  0  0
    3.8971   -2.2500    0.0000 O   0  0  0  0  0  0  0  0  0  0  0  0
    3.8971   -3.7500    0.0000 C   0  0  0  0  0  3  0  0  0  0  0  0
    5.1962   -4.5000    0.0000 C   0  0  0  0  0  0  0  0  0  0  0  0
    5.1962   -6.0000    0.0000 C   0  0  0  0  0  0  0  0  0  0  0  0
    3.8971   -6.7500    0.0000 O   0  0  0  0  0  0  0  0  0  0  0  0
    6.4952   -6.7500    0.0000 C   0  0  0  0  0  0  0  0  0  0  0  0
    6.4952   -8.2500    0.0000 C   0  0  0  0  0  3  0  0  0  0  0  0
    7.7942   -9.0000    0.0000 C   0  0  0  0  0  0  0  0  0  0  0  0
    7.7942  -10.5000    0.0000 C   0  0  0  0  0  0  0  0  0  0  0  0
    9.0933  -11.2500    0.0000 C   0  0  0  0  0  0  0  0  0  0  0  0
    9.0933  -12.7500    0.0000 C   0  0  0  0  0  0  0  0  0  0  0  0
   10.3923  -10.5000    0.0000 C   0  0  0  0  0  0  0  0  0  0  0  0
   11.6913  -11.2500    0.0000 C   0  0  0  0  0  0  0  0  0  0  0  0
   12.9904  -10.5000    0.0000 C   0  0  0  0  0  0  0  0  0  0  0  0
   14.2894  -11.2500    0.0000 C   0  0  0  0  0  0  0  0  0  0  0  0
   15.5885  -10.5000    0.0000 C   0  0  0  0  0  0  0  0  0  0  0  0
   16.8875  -11.2500    0.0000 O   0  0  0  0  0  0  0  0  0  0  0  0
   10.3923   -9.0000    0.0000 C   0  0  0  0  0  0  0  0  0  0  0  0
   11.6913   -8.2500    0.0000 O   0  0  0  0  0  0  0  0  0  0  0  0
   11.6913   -6.7500    0.0000 C   0  0  0  0  0  0  0  0  0  0  0  0
   12.9904   -6.0000    0.0000 C   0  0  0  0  0  0  0  0  0  0  0  0
   12.9904   -4.5000    0.0000 C   0  0  0  0  0  0  0  0  0  0  0  0
   14.2894   -3.7500    0.0000 O   0  0  0  0  0  0  0  0  0  0  0  0
   14.2894   -2.2500    0.0000 N   0  0  0  0  0  2  0  0  0  0  0  0
   15.5885   -1.5000    0.0000 O   0  0  0  0  0  0  0  0  0  0  0  0
   15.5885   -0.0000    0.0000 C   0  0  0  0  0  0  0  0  0  0  0  0
   16.8875    0.7500    0.0000 O   0  0  0  0  0  0  0  0  0  0  0  0
   16.8875    2.2500    0.0000 C   0  0  0  0  0  0  0  0  0  0  0  0
   18.1865    3.0000    0.0000 C   0  0  0  0  0  2  0  0  0  0  0  0
   15.5885    3.0000    0.0000 O   0  0  0  0  0  0  0  0  0  0  0  0
   15.5885    4.5000    0.0000 C   0  0  0  0  0  3  0  0  0  0  0  0
   14.2894    5.2500    0.0000 C   0  0  0  0  0  0  0  0  0  0  0  0
   14.2894    6.7500    0.0000 C   0  0  0  0  0  3  0  0  0  0  0  0
   12.9904    7.5000    0.0000 C   0  0  0  0  0  0  0  0  0  0  0  0
   12.9904    9.0000    0.0000 C   0  0  0  0  0  2  0  0  0  0  0  0
   11.6913    6.7500    0.0000 C   0  0  0  0  0  0  0  0  0  0  0  0
   10.3923    7.5000    0.0000 C   0  0  0  0  0  0  0  0  0  0  0  0
    9.0933    6.7500    0.0000 C   0  0  0  0  0  0  0  0  0  0  0  0
    7.7942    7.5000    0.0000 C   0  0  0  0  0  0  0  0  0  0  0  0
    7.7942    9.0000    0.0000 C   0  0  0  0  0  0  0  0  0  0  0  0
    6.4952    9.7500    0.0000 O   0  0  0  0  0  0  0  0  0  0  0  0
    6.4952   11.2500    0.0000 C   0  0  0  0  0  3  0  0  0  0  0  0
    5.1962   12.0000    0.0000 C   0  0  0  0  0  2  0  0  0  0  0  0
    6.4952    6.7500    0.0000 C   0  0  0  0  0  0  0  0  0  0  0  0
    5.1962    7.5000    0.0000 C   0  0  0  0  0  0  0  0  0  0  0  0
    6.4952    5.2500    0.0000 C   0  0  0  0  0  0  0  0  0  0  0  0
    5.1962    4.5000    0.0000 C   0  0  0  0  0  0  0  0  0  0  0  0
    5.1962    3.0000    0.0000 C   0  0  0  0  0  0  0  0  0  0  0  0
    3.8971    5.2500    0.0000 C   0  0  0  0  0  0  0  0  0  0  0  0
    2.5981    4.5000    0.0000 C   0  0  0  0  0  0  0  0  0  0  0  0
    1.2990    5.2500    0.0000 C   0  0  0  0  0  3  0  0  0  0  0  0
    0.0000    4.5000    0.0000 C   0  0  0  0  0  0  0  0  0  0  0  0
   -1.2990    5.2500    0.0000 O   0  0  0  0  0  0  0  0  0  0  0  0
   -2.5981    4.5000    0.0000 C   0  0  0  0  0  0  0  0  0  0  0  0
   -3.8971    5.2500    0.0000 C   0  0  0  0  0  0  0  0  0  0  0  0
   -5.1962    4.5000    0.0000 C   0  0  0  0  0  0  0  0  0  0  0  0
   -6.4952    5.2500    0.0000 C   0  0  0  0  0  0  0  0  0  0  0  0
   -6.4952    6.7500    0.0000 O   0  0  0  0  0  0  0  0  0  0  0  0
   -7.7942    4.5000    0.0000 C   0  0  0  0  0  0  0  0  0  0  0  0
   -9.0933    5.2500    0.0000 C   0  0  0  0  0  0  0  0  0  0  0  0
  -10.3923    4.5000    0.0000 C   0  0  0  0  0  0  0  0  0  0  0  0
  -11.6913    5.2500    0.0000 C   0  0  0  0  0  0  0  0  0  0  0  0
  -11.6913    6.7500    0.0000 O   0  0  0  0  0  0  0  0  0  0  0  0
  -12.9904    4.5000    0.0000 C   0  0  0  0  0  0  0  0  0  0  0  0
  -14.2894    5.2500    0.0000 C   0  0  0  0  0  2  0  0  0  0  0  0
  -12.9904    3.0000    0.0000 O   0  0  0  0  0  0  0  0  0  0  0  0
  -14.2894    2.2500    0.0000 C   0  0  0  0  0  3  0  0  0  0  0  0
  -14.2894    0.7500    0.0000 C   0  0  0  0  0  0  0  0  0  0  0  0
  -15.5885    0.0000    0.0000 C   0  0  0  0  0  3  0  0  0  0  0  0
  -15.5885   -1.5000    0.0000 O   0  0  0  0  0  0  0  0  0  0  0  0
  -16.8875   -2.2500    0.0000 O   0  0  0  0  0  0  0  0  0  0  0  0
  -16.8875   -3.7500    0.0000 C   0  0  0  0  0  3  0  0  0  0  0  0
  -18.1865   -4.5000    0.0000 C   0  0  0  0  0  3  0  0  0  0  0  0
  -18.1865   -6.0000    0.0000 O   0  0  0  0  0  0  0  0  0  0  0  0
  -19.4856   -6.7500    0.0000 O   0  0  0  0  0  0  0  0  0  0  0  0
  -19.4856   -8.2500    0.0000 C   0  0  0  0  0  3  0  0  0  0  0  0
  -20.7846   -9.0000    0.0000 C   0  0  0  0  0  0  0  0  0  0  0  0
  1  2  1  0
  2  3  1  0
  3  4  1  6
  3  5  1  0
  5  6  2  0
  5  7  1  0
  7  8  1  0
  8  9  1  0
  9 10  1  0
 10 11  1  1
 10 12  1  0
 12 13  1  0
 13 14  1  0
 14 15  2  3
 15 16  1  0
 16 17  1  1
 16 18  1  0
 18 19  1  1
 19 20  1  0
 20 21  1  0
 21 22  1  0
 22 23  1  0
 18 24  1  0
 24 25  1  0
 25 26  1  0
 26 27  1  0
 27 28  1  0
 28 29  1  0
 29 30  1  0
 30 31  1  0
 31 32  1  0
 32 33  1  0
 33 34  1  0
 34 35  1  1
 34 36  1  0
 36 37  1  0
 37 38  1  0
 38 39  1  0
 39 40  1  0
 40 41  1  0
 40 42  1  0
 42 43  1  0
 43 44  1  0
 44 45  1  0
 45 46  1  0
 46 47  1  0
 47 48  1  0
 48 49  1  0
 45 50  1  0
 50 51  1  0
 50 52  1  0
 52 53  1  0
 53 54  1  6
 53 55  1  0
 55 56  1  0
 56 57  1  0
 57 58  1  0
 58 59  1  0
 59 60  1  0
 60 61  2  3
 61 62  1  0
 62 63  1  0
 63 64  1  1
 63 65  1  0
 65 66  1  0
 66 67  1  0
 67 68  1  0
 68 69  1  1
 68 70  1  0
 70 71  1  0
 70 72  1  0
 72 73  1  0
 73 74  1  0
 74 75  1  0
 75 76  1  0
 76 77  1  0
 77 78  1  0
 78 79  1  0
 79 80  1  0
 80 81  1  0
 81 82  1  0
 82 83  1  0
M  RAD  8   8   2  13   2  30   3  35   3  37   2  39   2  41   3  48   2
M  RAD  8  49   3  57   2  71   3  73   2  75   2  78   2  79   2  82   2
M  CHG  1  30   1
M  END
$$$$
