
     RDKit          2D

 97 96  0  0  0  0  0  0  0  0999 V2000
    0.0000    0.0000    0.0000 C   0  0  0  0  0  0  0  0  0  0  0  0
    1.2990    0.7500    0.0000 C   0  0  0  0  0  0  0  0  0  0  0  0
    2.5981   -0.0000    0.0000 C   0  0  0  0  0  0  0  0  0  0  0  0
    1.2990    2.2500    0.0000 C   0  0  0  0  0  0  0  0  0  0  0  0
    2.5981    3.0000    0.0000 C   0  0  0  0  0  0  0  0  0  0  0  0
    2.5981    4.5000    0.0000 C   0  0  0  0  0  0  0  0  0  0  0  0
    3.8971    5.2500    0.0000 C   0  0  0  0  0  0  0  0  0  0  0  0
    3.8971    6.7500    0.0000 C   0  0  0  0  0  0  0  0  0  0  0  0
    5.1962    4.5000    0.0000 C   0  0  0  0  0  3  0  0  0  0  0  0
    6.4952    5.2500    0.0000 C   0  0  0  0  0  0  0  0  0  0  0  0
    7.7942    4.5000    0.0000 C   0  0  0  0  0  0  0  0  0  0  0  0
    9.0933    5.2500    0.0000 C   0  0  0  0  0  0  0  0  0  0  0  0
   10.3923    4.5000    0.0000 C   0  0  0  0  0  0  0  0  0  0  0  0
    9.0933    6.7500    0.0000 C   0  0  0  0  0  0  0  0  0  0  0  0
   10.3923    7.5000    0.0000 C   0  0  0  0  0  0  0  0  0  0  0  0
   10.3923    9.0000    0.0000 C   0  0  0  0  0  2  0  0  0  0  0  0
   11.6913    6.7500    0.0000 C   0  0  0  0  0  0  0  0  0  0  0  0
   12.9904    7.5000    0.0000 C   0  0  0  0  0  0  0  0  0  0  0  0
   14.2894    6.7500    0.0000 C   0  0  0  0  0  0  0  0  0  0  0  0
   15.5885    7.5000    0.0000 C   0  0  0  0  0  0  0  0  0  0  0  0
   16.8875    6.7500    0.0000 C   0  0  0  0  0  0  0  0  0  0  0  0
   18.1865    7.5000    0.0000 C   0  0  0  0  0  0  0  0  0  0  0  0
   19.4856    6.7500    0.0000 C   0  0  0  0  0  0  0  0  0  0  0  0
   20.7846    7.5000    0.0000 C   0  0  0  0  0  0  0  0  0  0  0  0
   22.0836    6.7500    0.0000 C   0  0  0  0  0  0  0  0  0  0  0  0
   23.3827    7.5000    0.0000 C   0  0  0  0  0  0  0  0  0  0  0  0
   24.6817    6.7500    0.0000 C   0  0  0  0  0  0  0  0  0  0  0  0
   25.9808    7.5000    0.0000 C   0  0  0  0  0  0  0  0  0  0  0  0
   27.2798    6.7500    0.0000 C   0  0  0  0  0  0  0  0  0  0  0  0
   28.5788    7.5000    0.0000 C   0  0  0  0  0  0  0  0  0  0  0  0
   29.8779    6.7500    0.0000 C   0  0  0  0  0  0  0  0  0  0  0  0
   31.1769    7.5000    0.0000 C   0  0  0  0  0  3  0  0  0  0  0  0
   32.4760    6.7500    0.0000 O   0  0  0  0  0  0  0  0  0  0  0  0
   33.7750    7.5000    0.0000 C   0  0  0  0  0  3  0  0  0  0  0  0
   35.0740    6.7500    0.0000 C   0  0  0  0  0  0  0  0  0  0  0  0
   36.3731    7.5000    0.0000 C   0  0  0  0  0  3  0  0  0  0  0  0
   37.6721    6.7500    0.0000 C   0  0  0  0  0  3  0  0  0  0  0  0
   38.9711    7.5000    0.0000 C   0  0  0  0  0  0  0  0  0  0  0  0
   40.2702    6.7500    0.0000 C   0  0  0  0  0  0  0  0  0  0  0  0
   38.9711    9.0000    0.0000 C   0  0  0  0  0  0  0  0  0  0  0  0
   40.2702    9.7500    0.0000 C   0  0  0  0  0  0  0  0  0  0  0  0
   40.2702   11.2500    0.0000 C   0  0  0  0  0  0  0  0  0  0  0  0
   41.5692   12.0000    0.0000 C   0  0  0  0  0  0  0  0  0  0  0  0
   41.5692   13.5000    0.0000 C   0  0  0  0  0  3  0  0  0  0  0  0
   42.8683   14.2500    0.0000 C   0  0  0  0  0  3  0  0  0  0  0  0
   42.8683   15.7500    0.0000 C   0  0  0  0  0  0  0  0  0  0  0  0
   44.1673   16.5000    0.0000 C   0  0  0  0  0  0  0  0  0  0  0  0
   44.1673   18.0000    0.0000 C   0  0  0  0  0  0  0  0  0  0  0  0
   45.4663   15.7500    0.0000 C   0  0  0  0  0  0  0  0  0  0  0  0
   46.7654   16.5000    0.0000 C   0  0  0  0  0  0  0  0  0  0  0  0
   48.0644   15.7500    0.0000 C   0  0  0  0  0  2  0  0  0  0  0  0
   46.7654   18.0000    0.0000 C   0  0  0  0  0  0  0  0  0  0  0  0
   48.0644   18.7500    0.0000 C   0  0  0  0  0  3  0  0  0  0  0  0
   48.0644   20.2500    0.0000 C   0  0  0  0  0  0  0  0  0  0  0  0
   49.3634   21.0000    0.0000 C   0  0  0  0  0  0  0  0  0  0  0  0
   42.8683   11.2500    0.0000 C   0  0  0  0  0  3  0  0  0  0  0  0
   44.1673   12.0000    0.0000 C   0  0  0  0  0  3  0  0  0  0  0  0
   45.4663   11.2500    0.0000 C   0  0  0  0  0  0  0  0  0  0  0  0
   46.7654   12.0000    0.0000 C   0  0  0  0  0  0  0  0  0  0  0  0
   45.4663    9.7500    0.0000 S   0  0  0  0  0  0  0  0  0  0  0  0
   46.7654    9.0000    0.0000 C   0  0  0  0  0  3  0  0  0  0  0  0
   46.7654    7.5000    0.0000 C   0  0  0  0  0  0  0  0  0  0  0  0
   48.0644    6.7500    0.0000 C   0  0  0  0  0  0  0  0  0  0  0  0
   48.0644    5.2500    0.0000 C   0  0  0  0  0  0  0  0  0  0  0  0
   49.3634    4.5000    0.0000 C   0  0  0  0  0  0  0  0  0  0  0  0
   49.3634    3.0000    0.0000 C   0  0  0  0  0  0  0  0  0  0  0  0
   50.6625    2.2500    0.0000 C   0  0  0  0  0  0  0  0  0  0  0  0
   50.6625    0.7500    0.0000 C   0  0  0  0  0  0  0  0  0  0  0  0
   51.9615    0.0000    0.0000 C   0  0  0  0  0  0  0  0  0  0  0  0
   51.9615   -1.5000    0.0000 C   0  0  0  0  0  0  0  0  0  0  0  0
   53.2606   -2.2500    0.0000 C   0  0  0  0  0  2  0  0  0  0  0  0
   50.6625   -2.2500    0.0000 C   0  0  0  0  0  0  0  0  0  0  0  0
   50.6625   -3.7500    0.0000 C   0  0  0  0  0  3  0  0  0  0  0  0
   49.3634   -4.5000    0.0000 C   0  0  0  0  0  0  0  0  0  0  0  0
   49.3634   -6.0000    0.0000 C   0  0  0  0  0  2  0  0  0  0  0  0
   48.0644   -3.7500    0.0000 C   0  0  0  0  0  0  0  0  0  0  0  0
   46.7654   -4.5000    0.0000 C   0  0  0  0  0  3  0  0  0  0  0  0
   45.4663   -3.7500    0.0000 C   0  0  0  0  0  0  0  0  0  0  0  0
   44.1673   -4.5000    0.0000 C   0  0  0  0  0  0  0  0  0  0  0  0
   45.4663   -2.2500    0.0000 C   0  0  0  0  0  0  0  0  0  0  0  0
   44.1673   -1.5000    0.0000 C   0  0  0  0  0  0  0  0  0  0  0  0
   44.1673    0.0000    0.0000 C   0  0  0  0  0  3  0  0  0  0  0  0
   42.8683    0.7500    0.0000 C   0  0  0  0  0  3  0  0  0  0  0  0
   42.8683    2.2500    0.0000 C   0  0  0  0  0  0  0  0  0  0  0  0
   41.5692    3.0000    0.0000 C   0  0  0  0  0  0  0  0  0  0  0  0
   41.5692    4.5000    0.0000 C   0  0  0  0  0  3  0  0  0  0  0  0
   40.2702    5.2500    0.0000 C   0  0  0  0  0  0  0  0  0  0  0  0
   38.9711    4.5000    0.0000 C   0  0  0  0  0  0  0  0  0  0  0  0
   37.6721    5.2500    0.0000 C   0  0  0  0  0  3  0  0  0  0  0  0
   36.3731    4.5000    0.0000 C   0  0  0  0  0  0  0  0  0  0  0  0
   35.0740    5.2500    0.0000 C   0  0  0  0  0  3  0  0  0  0  0  0
   33.7750    4.5000    0.0000 C   0  0  0  0  0  0  0  0  0  0  0  0
   32.4760    5.2500    0.0000 C   0  0  0  0  0  3  0  0  0  0  0  0
   31.1769    4.5000    0.0000 N   0  0  0  0  0  0  0  0  0  0  0  0
   29.8779    5.2500    0.0000 C   0  0  0  0  0  3  0  0  0  0  0  0
   28.5788    4.5000    0.0000 C   0  0  0  0  0  3  0  0  0  0  0  0
   27.2798    5.2500    0.0000 C   0  0  0  0  0  2  0  0  0  0  0  0
  1  2  1  0
  2  3  1  0
  2  4  1  0
  4  5  1  0
  5  6  1  0
  6  7  1  0
  7  8  1  1
  7  9  1  0
  9 10  1  0
 10 11  1  0
 11 12  1  0
 12 13  1  1
 12 14  1  0
 14 15  1  0
 15 16  1  0
 15 17  1  0
 17 18  1  0
 18 19  1  0
 19 20  1  0
 20 21  1  0
 21 22  1  0
 22 23  1  0
 23 24  1  0
 24 25  1  0
 25 26  1  0
 26 27  1  0
 27 28  2  3
 28 29  1  0
 29 30  1  0
 30 31  1  0
 31 32  1  0
 32 33  1  0
 33 34  1  0
 34 35  1  0
 35 36  1  0
 36 37  1  0
 37 38  1  0
 38 39  1  1
 38 40  1  0
 40 41  1  0
 41 42  1  0
 43 42  1  6
 43 44  1  0
 44 45  1  0
 45 46  1  0
 46 47  1  0
 47 48  1  6
 47 49  1  0
 49 50  1  0
 50 51  1  0
 50 52  1  0
 52 53  1  0
 53 54  1  0
 54 55  1  0
 43 56  1  0
 56 57  1  0
 57 58  1  0
 58 59  1  6
 58 60  1  0
 60 61  1  0
 61 62  1  0
 62 63  1  0
 63 64  1  0
 64 65  1  0
 65 66  1  0
 66 67  1  0
 67 68  1  0
 68 69  1  0
 69 70  1  0
 70 71  1  6
 70 72  1  0
 72 73  1  0
 73 74  1  0
 74 75  1  1
 74 76  1  0
 76 77  1  0
 77 78  1  0
 78 79  1  6
 78 80  1  0
 80 81  1  0
 81 82  1  0
 82 83  1  0
 83 84  1  0
 84 85  1  0
 85 86  1  0
 86 87  1  0
 87 88  1  0
 88 89  1  0
 89 90  1  0
 90 91  1  0
 91 92  1  0
 92 93  1  0
 93 94  1  0
 94 95  1  0
 95 96  1  0
 96 97  1  0
M  RAD  8   9   2  16   3  32   2  34   2  36   2  37   2  44   2  45   2
M  RAD  8  51   3  53   2  56   2  57   2  61   2  71   3  73   2  75   3
M  RAD  8  77   2  82   2  83   2  86   2  89   2  91   2  93   2  95   2
M  RAD  2  96   2  97   3
M  END
$$$$
