
     RDKit          3D

 13 13  0  0  0  0  0  0  0  0999 V2000
   -2.9731   -0.7061    0.4004 C   0  0  0  0  0  0  0  0  0  0  0  0
   -4.0646    0.0911    0.1580 C   0  0  0  0  0  0  0  0  0  0  0  0
   -4.0025    1.1226   -0.7570 C   0  0  0  0  0  0  0  0  0  0  0  0
   -2.7967    1.3012   -1.4030 C   0  0  0  0  0  0  0  0  0  0  0  0
   -1.6915    0.5012   -1.1639 C   0  0  0  0  0  0  0  0  0  0  0  0
   -1.7710   -0.5243   -0.2469 C   0  0  0  0  0  0  0  0  0  0  0  0
   -0.3580   -1.5922    0.0984 S   0  0  0  0  0  0  0  0  0  0  0  0
    0.5979   -0.8883    1.4252 C   0  0  0  0  0  0  0  0  0  0  0  0
    1.7320   -0.3299    1.1683 N   0  0  0  0  0  0  0  0  0  0  0  0
    2.2671   -0.2370   -0.0818 O   0  0  0  0  0  0  0  0  0  0  0  0
    3.0933    0.8918   -0.3804 C   0  0  0  0  0  0  0  0  0  0  0  0
    4.4991    0.8550    0.7726 S   0  0  0  0  0  0  0  0  0  0  0  0
    5.4681   -0.4851    0.4678 F   0  0  0  0  0  0  0  0  0  0  0  0
  1  2  2  0
  2  3  1  0
  3  4  2  0
  4  5  1  0
  5  6  2  0
  6  7  1  0
  7  8  1  0
  8  9  2  3
  9 10  1  0
 10 11  1  0
 11 12  1  0
 12 13  1  0
  6  1  1  0
M  END
$$$$
