
     RDKit          3D

 45 49  0  0  0  0  0  0  0  0999 V2000
    0.5219   -0.0710    0.9310 C   0  0  0  0  0  0  0  0  0  0  0  0
   -0.3817    0.5214    1.6753 C   0  0  0  0  0  0  0  0  0  0  0  0
   -0.1920    1.0148    3.0595 C   0  0  0  0  0  0  0  0  0  0  0  0
   -1.7400    0.7306    1.1017 C   0  0  2  0  0  0  0  0  0  0  0  0
   -1.7981    0.3956   -0.3612 C   0  0  0  0  0  0  0  0  0  0  0  0
   -1.4703    1.5267   -1.2586 C   0  0  0  0  0  0  0  0  0  0  0  0
   -0.3021    1.3890   -2.1402 C   0  0  0  0  0  3  0  0  0  0  0  0
    0.1044    0.0964   -2.6481 C   0  0  0  0  0  0  0  0  0  0  0  0
    0.6918    2.4522   -1.9155 C   0  0  0  0  0  0  0  0  0  0  0  0
    0.1798    3.4066   -0.8631 C   0  0  0  0  0  0  0  0  0  0  0  0
   -0.0788    2.7152    0.4587 C   0  0  0  0  0  0  0  0  0  0  0  0
   -1.4133    3.2167    0.9907 C   0  0  2  0  0  0  0  0  0  0  0  0
   -1.1009    4.0602    2.2105 C   0  0  0  0  0  0  0  0  0  0  0  0
   -2.2961    2.0810    1.4387 C   0  0  1  0  0  0  0  0  0  0  0  0
   -3.6369    2.2074    0.7492 C   0  0  0  0  0  0  0  0  0  0  0  0
   -4.3212    0.8469    0.9096 C   0  0  0  0  0  3  0  0  0  0  0  0
   -5.8126    0.9584    0.8931 C   0  0  0  0  0  3  0  0  0  0  0  0
   -6.3809   -0.0409   -0.0963 C   0  0  1  0  0  0  0  0  0  0  0  0
   -7.3380    0.7210   -0.9939 C   0  0  0  0  0  0  0  0  0  0  0  0
   -5.2474   -0.6584   -0.9042 C   0  0  0  0  0  0  0  0  0  0  0  0
   -5.1825   -2.1376   -0.6356 C   0  0  0  0  0  0  0  0  0  0  0  0
   -3.8647   -2.5127    0.0110 C   0  0  1  0  0  0  0  0  0  0  0  0
   -4.1344   -3.0747    1.3870 C   0  0  0  0  0  0  0  0  0  0  0  0
   -3.1898   -3.5926   -0.8085 C   0  0  0  0  0  0  0  0  0  0  0  0
   -1.8076   -3.7831   -0.3477 C   0  0  0  0  0  0  0  0  0  0  0  0
   -0.7699   -3.0657   -0.7532 C   0  0  0  0  0  0  0  0  0  0  0  0
   -0.9168   -1.9804   -1.7324 C   0  0  0  0  0  0  0  0  0  0  0  0
    0.2389   -0.9713   -1.5437 C   0  0  0  0  0  0  0  0  0  0  0  0
    1.4616   -1.8027   -2.0355 C   0  0  0  0  0  0  0  0  0  0  0  0
    0.4605   -0.5497   -0.3129 N   0  0  0  0  0  0  0  0  0  0  0  0
    1.7553   -0.6936    0.3836 C   0  0  0  0  0  0  0  0  0  0  0  0
    2.0767   -2.4375    0.7301 S   0  0  0  0  0  0  0  0  0  0  0  0
    3.3809   -2.5145    1.9893 C   0  0  0  0  0  0  0  0  0  0  0  0
    4.5936   -1.7383    1.5972 C   0  0  1  0  0  0  0  0  0  0  0  0
    5.6434   -2.5618    0.9119 C   0  0  0  0  0  0  0  0  0  0  0  0
    6.0591   -3.6572    1.8920 C   0  0  0  0  0  0  0  0  0  0  0  0
    4.3122   -0.4313    0.9356 C   0  0  1  0  0  0  0  0  0  0  0  0
    4.9776    0.6595    1.7462 C   0  0  0  0  0  0  0  0  0  0  0  0
    4.7502   -0.3874   -0.5117 C   0  0  0  0  0  0  0  0  0  0  0  0
    6.2191   -0.4223   -0.4903 N   0  0  0  0  0  0  0  0  0  0  0  0
    4.3583    0.9707   -1.0577 C   0  0  0  0  0  0  0  0  0  0  0  0
    3.9111    1.9094    0.0172 C   0  0  0  0  0  3  0  0  0  0  0  0
    2.6082    2.6075   -0.3018 C   0  0  0  0  0  0  0  0  0  0  0  0
    2.0816    2.0294   -1.5987 C   0  0  2  0  0  0  0  0  0  0  0  0
    2.9897    2.5680   -2.7083 C   0  0  0  0  0  2  0  0  0  0  0  0
  1  2  2  3
  2  3  1  0
  2  4  1  0
  4  5  1  6
  5  6  1  0
  6  7  1  0
  7  8  1  0
  7  9  1  0
  9 10  1  0
 10 11  1  0
 11 12  1  0
 12 13  1  1
 12 14  1  0
 14 15  1  6
 15 16  1  0
 16 17  1  0
 17 18  1  0
 18 19  1  6
 18 20  1  0
 20 21  1  0
 21 22  1  0
 22 23  1  1
 22 24  1  0
 24 25  1  0
 25 26  2  3
 26 27  1  0
 27 28  1  0
 28 29  1  0
 28 30  1  0
 30 31  1  0
 31 32  1  0
 32 33  1  0
 33 34  1  0
 34 35  1  6
 35 36  1  0
 34 37  1  0
 37 38  1  1
 37 39  1  0
 39 40  1  0
 39 41  1  0
 41 42  1  0
 42 43  1  0
 43 44  1  0
 44 45  1  6
 30  1  1  0
 31  1  1  0
 14  4  1  0
 28  8  1  0
 44  9  1  0
M  RAD  5   7   2  16   2  17   2  42   2  45   3
M  END
$$$$
