
     RDKit          3D

 40 43  0  0  0  0  0  0  0  0999 V2000
   -2.1347   -0.2611   -0.1749 C   0  0  0  0  0  0  0  0  0  0  0  0
   -0.9896    0.6433   -0.4469 C   0  0  0  0  0  0  0  0  0  0  0  0
   -0.3075    0.1477   -1.7282 C   0  0  0  0  0  0  0  0  0  0  0  0
   -1.3264    2.0731   -0.6487 C   0  0  0  0  0  0  0  0  0  0  0  0
   -0.0318    2.7895   -1.0523 C   0  0  0  0  0  0  0  0  0  0  0  0
    1.1823    2.0345   -0.5090 C   0  0  0  0  0  0  0  0  0  0  0  0
    2.2393    1.8625   -1.5869 C   0  0  1  0  0  0  0  0  0  0  0  0
    2.8505    3.2530   -1.7998 C   0  0  0  0  0  0  0  0  0  0  0  0
    3.3043    0.9496   -0.9981 C   0  0  1  0  0  0  0  0  0  0  0  0
    4.1593    0.3173   -2.0666 C   0  0  0  0  0  0  0  0  0  0  0  0
    3.4342   -0.7434   -2.8504 C   0  0  0  0  0  0  0  0  0  0  0  0
    3.4658   -2.0927   -2.1441 C   0  0  2  0  0  0  0  0  0  0  0  0
    3.9707   -3.0958   -3.1819 C   0  0  0  0  0  0  0  0  0  0  0  0
    1.8394   -2.6132   -1.5895 S   0  0  0  0  0  0  0  0  0  0  0  0
    1.6355   -2.1964    0.1470 C   0  0  0  0  0  0  0  0  0  0  0  0
    0.3849   -2.8571    0.7383 C   0  0  0  0  0  0  0  0  0  0  0  0
    0.8172   -3.3242    2.1363 C   0  0  0  0  0  3  0  0  0  0  0  0
    1.5739   -2.1859    2.7566 C   0  0  0  0  0  0  0  0  0  0  0  0
    2.9813   -2.0964    2.1824 C   0  0  0  0  0  0  0  0  0  0  0  0
    3.6795   -0.8653    2.6556 C   0  0  0  0  0  0  0  0  0  0  0  0
    3.4080   -0.5576    3.9818 O   0  0  0  0  0  0  0  0  0  0  0  0
    3.4191    0.3459    1.7905 C   0  0  0  0  0  0  0  0  0  0  0  0
    4.6733    0.7969    1.0671 C   0  0  0  0  0  0  0  0  0  0  0  0
    4.2248    1.7212   -0.0625 C   0  0  2  0  0  0  0  0  0  0  0  0
    3.4744    2.8606    0.5873 C   0  0  0  0  0  0  0  0  0  0  0  0
   -0.7096   -1.8642    0.9335 C   0  0  0  0  0  0  0  0  0  0  0  0
   -1.5651   -1.6860   -0.3291 C   0  0  0  0  0  0  0  0  0  0  0  0
   -2.7273   -2.6609   -0.1703 C   0  0  0  0  0  0  0  0  0  0  0  0
   -3.0963   -2.5848    1.1918 O   0  0  0  0  0  0  0  0  0  0  0  0
   -3.6676   -1.3506    1.3871 C   0  0  0  0  0  0  0  0  0  0  0  0
   -2.6519   -0.2125    1.2320 C   0  0  2  0  0  0  0  0  0  0  0  0
   -3.3275    1.0492    1.6071 C   0  0  1  0  0  0  0  0  0  0  0  0
   -2.5836    1.8876    2.5948 C   0  0  0  0  0  0  0  0  0  0  0  0
   -3.9653    1.8002    0.4978 C   0  0  0  0  0  0  0  0  0  0  0  0
   -5.3021    2.3934    0.8315 C   0  0  0  0  0  3  0  0  0  0  0  0
   -6.2159    2.1434   -0.3707 C   0  0  0  0  0  0  0  0  0  0  0  0
   -5.5070    1.3721   -1.4552 C   0  0  0  0  0  3  0  0  0  0  0  0
   -4.2139    2.0027   -1.8717 C   0  0  0  0  0  0  0  0  0  0  0  0
   -3.1264    0.9574   -2.1361 C   0  0  0  0  0  3  0  0  0  0  0  0
   -3.2683   -0.1530   -1.1456 C   0  0  0  0  0  3  0  0  0  0  0  0
  1  2  1  0
  2  3  1  0
  2  4  1  0
  4  5  1  0
  5  6  1  0
  6  7  1  0
  7  8  1  1
  7  9  1  0
  9 10  1  6
 10 11  1  0
 11 12  1  0
 12 13  1  6
 12 14  1  0
 14 15  1  0
 15 16  1  0
 16 17  1  0
 17 18  1  0
 18 19  1  0
 19 20  1  0
 20 21  1  0
 20 22  1  0
 22 23  1  0
 23 24  1  0
 24 25  1  1
 16 26  1  0
 26 27  1  0
 27 28  1  0
 28 29  1  0
 29 30  1  0
 31 30  1  6
 31 32  1  0
 32 33  1  6
 32 34  1  0
 34 35  1  0
 35 36  1  0
 36 37  1  0
 37 38  1  0
 38 39  1  0
 39 40  1  0
 27  1  1  0
 31  1  1  0
 40  1  1  0
 24  9  1  0
M  RAD  5  17   2  35   2  37   2  39   2  40   2
M  END
$$$$
