
     RDKit          3D

 28 28  0  0  0  0  0  0  0  0999 V2000
    0.7919   -3.8025   -0.4330 C   0  0  0  0  0  0  0  0  0  0  0  0
   -0.4199   -3.7312   -1.1273 O   0  0  0  0  0  0  0  0  0  0  0  0
   -1.4001   -3.3565   -0.1971 C   0  0  0  0  0  3  0  0  0  0  0  0
   -1.9220   -2.1383   -0.6364 O   0  0  0  0  0  0  0  0  0  0  0  0
   -2.3325   -1.4121    0.4928 C   0  0  2  0  0  0  0  0  0  0  0  0
   -3.0867   -2.3949    1.3671 C   0  0  0  0  0  0  0  0  0  0  0  0
   -4.2312   -3.0073    0.5973 C   0  0  0  0  0  2  0  0  0  0  0  0
   -3.2277   -0.2870    0.0259 C   0  0  1  0  0  0  0  0  0  0  0  0
   -4.1625   -0.0678    1.0242 O   0  0  0  0  0  0  0  0  0  0  0  0
   -5.1399    0.8487    0.6781 C   0  0  0  0  0  2  0  0  0  0  0  0
   -2.3854    0.9459   -0.2603 C   0  0  0  0  0  0  0  0  0  0  0  0
   -3.0213    2.1393    0.4039 C   0  0  2  0  0  0  0  0  0  0  0  0
   -3.6234    3.0760   -0.6068 C   0  0  0  0  0  0  0  0  0  0  0  0
   -2.0568    2.8236    1.1201 O   0  0  0  0  0  0  0  0  0  0  0  0
   -1.2991    3.6371    0.2878 C   0  0  0  0  0  0  0  0  0  0  0  0
    0.1690    3.5314    0.6604 C   0  0  0  0  0  3  0  0  0  0  0  0
    0.9656    4.0160   -0.3803 O   0  0  0  0  0  0  0  0  0  0  0  0
    1.9554    3.0746   -0.6494 C   0  0  0  0  0  3  0  0  0  0  0  0
    2.9017    3.1328    0.3851 O   0  0  0  0  0  0  0  0  0  0  0  0
    3.2408    1.8261    0.7600 C   0  0  2  0  0  0  0  0  0  0  0  0
    3.7859    1.8718    2.0324 O   0  0  0  0  0  0  0  0  0  0  0  0
    4.3054    1.3518   -0.2043 C   0  0  0  0  0  0  0  0  0  0  0  0
    3.7037    0.3328   -1.1347 C   0  0  0  0  0  0  0  0  0  0  0  0
    4.4313   -0.9818   -0.9072 C   0  0  0  0  0  3  0  0  0  0  0  0
    3.7749   -2.0251   -1.5434 O   0  0  0  0  0  0  0  0  0  0  0  0
    2.8810   -2.5734   -0.6290 C   0  0  2  0  0  0  0  0  0  0  0  0
    3.5270   -3.4293    0.2750 O   0  0  0  0  0  0  0  0  0  0  0  0
    1.8749   -3.4008   -1.4008 C   0  0  0  0  0  3  0  0  0  0  0  0
  1  2  1  0
  2  3  1  0
  3  4  1  0
  4  5  1  0
  5  6  1  1
  6  7  1  0
  5  8  1  0
  8  9  1  1
  9 10  1  0
  8 11  1  0
 11 12  1  0
 12 13  1  6
 12 14  1  0
 14 15  1  0
 15 16  1  0
 16 17  1  0
 17 18  1  0
 18 19  1  0
 19 20  1  0
 20 21  1  1
 20 22  1  0
 22 23  1  0
 23 24  1  0
 24 25  1  0
 25 26  1  0
 26 27  1  1
 26 28  1  0
 28  1  1  0
M  RAD  7   3   2   7   3  10   3  16   2  18   2  24   2  28   2
M  END
$$$$
