
     RDKit          2D

 14 16  0  0  0  0  0  0  0  0999 V2000
    0.7500   -1.2990    0.0000 C   0  0  0  0  0  0  0  0  0  0  0  0
    1.5000    0.0000    0.0000 O   0  0  0  0  0  0  0  0  0  0  0  0
    0.7500    1.2990    0.0000 C   0  0  0  0  0  0  0  0  0  0  0  0
   -0.7500    1.2990    0.0000 C   0  0  0  0  0  0  0  0  0  0  0  0
   -1.5000    0.0000    0.0000 C   0  0  0  0  0  0  0  0  0  0  0  0
   -2.9489    0.3882    0.0000 C   0  0  0  0  0  0  0  0  0  0  0  0
   -4.2479   -0.3618    0.0000 C   0  0  0  0  0  0  0  0  0  0  0  0
   -4.6362   -1.8107    0.0000 C   0  0  0  0  0  0  0  0  0  0  0  0
   -6.1233   -2.0064    0.0000 C   0  0  0  0  0  0  0  0  0  0  0  0
   -7.0365   -0.8164    0.0000 O   0  0  0  0  0  0  0  0  0  0  0  0
   -3.8862   -3.1097    0.0000 C   0  0  0  0  0  0  0  0  0  0  0  0
   -2.4373   -3.4979    0.0000 C   0  0  0  0  0  0  0  0  0  0  0  0
   -1.1382   -2.7479    0.0000 C   0  0  0  0  0  0  0  0  0  0  0  0
   -0.7500   -1.2990    0.0000 C   0  0  0  0  0  0  0  0  0  0  0  0
  1  2  1  0
  2  3  1  0
  3  4  2  0
  4  5  1  0
  5  6  2  0
  6  7  1  0
  7  8  2  3
  8  9  1  0
  9 10  2  0
  8 11  1  0
 11 12  2  3
 12 13  1  0
 13 14  2  3
 14  1  1  0
  6  1  1  0
 14  5  1  0
M  END
$$$$
