
     RDKit          3D

 11 11  0  0  0  0  0  0  0  0999 V2000
    4.2612    0.3953   -0.7489 O   0  0  0  0  0  0  0  0  0  0  0  0
    2.9302    0.7992   -0.7768 C   0  0  0  0  0  0  0  0  0  0  0  0
    2.1000   -0.3959   -1.2506 C   0  0  0  0  0  3  0  0  0  0  0  0
    1.7223   -1.1322   -0.0738 N   0  0  0  0  0  0  0  0  0  0  0  0
    0.3121   -1.3188    0.0763 C   0  0  0  0  0  3  0  0  0  0  0  0
   -0.4428   -0.0376   -0.1761 C   0  0  2  0  0  0  0  0  0  0  0  0
   -0.0082    0.9307    0.7507 O   0  0  0  0  0  0  0  0  0  0  0  0
   -1.9152   -0.2800   -0.0886 C   0  0  1  0  0  0  0  0  0  0  0  0
   -2.4815   -0.7351    1.0950 O   0  0  0  0  0  0  0  0  0  0  0  0
   -2.6334    0.6261    0.8967 C   0  0  2  0  0  0  0  0  0  0  0  0
   -3.8448    1.1485    0.5169 O   0  0  0  0  0  0  0  0  0  0  0  0
  1  2  1  0
  2  3  1  0
  3  4  1  0
  4  5  1  0
  5  6  1  0
  6  7  1  1
  6  8  1  0
  8  9  1  1
  8 10  1  0
 10 11  1  6
 10  9  1  0
M  RAD  2   3   2   5   2
M  END
$$$$
