
     RDKit          3D

 11 11  0  0  0  0  0  0  0  0999 V2000
    3.2960    0.3950   -0.2195 O   0  0  0  0  0  0  0  0  0  0  0  0
    2.4787   -0.5967    0.3171 C   0  0  0  0  0  0  0  0  0  0  0  0
    1.1042   -0.5669   -0.3344 C   0  0  1  0  0  0  0  0  0  0  0  0
    0.3226   -1.6229    0.2775 N   0  0  0  0  0  0  0  0  0  0  0  0
   -1.0500   -1.6226   -0.1926 C   0  0  0  0  0  0  0  0  0  0  0  0
   -1.6444   -0.2831    0.1209 C   0  0  2  0  0  0  0  0  0  0  0  0
   -3.0147   -0.2365   -0.0994 O   0  0  0  0  0  0  0  0  0  0  0  0
   -0.8971    0.7820   -0.6398 C   0  0  1  0  0  0  0  0  0  0  0  0
   -1.4613    2.0416   -0.4857 O   0  0  0  0  0  0  0  0  0  0  0  0
    0.5119    0.8044   -0.0728 C   0  0  1  0  0  0  0  0  0  0  0  0
    0.3541    0.9057    1.3286 O   0  0  0  0  0  0  0  0  0  0  0  0
  1  2  1  0
  3  2  1  1
  3  4  1  0
  4  5  1  0
  5  6  1  0
  6  7  1  6
  6  8  1  0
  8  9  1  1
  8 10  1  0
 10 11  1  1
 10  3  1  0
M  END
$$$$
