
     RDKit          3D

 23 25  0  0  0  0  0  0  0  0999 V2000
   -4.4220   -0.6431   -1.1118 C   0  0  0  0  0  0  0  0  0  0  0  0
   -4.6003   -1.6962   -0.1482 O   0  0  0  0  0  0  0  0  0  0  0  0
   -4.2634   -1.6700    1.1966 C   0  0  0  0  0  0  0  0  0  0  0  0
   -3.1384   -1.3433    1.8031 C   0  0  0  0  0  0  0  0  0  0  0  0
   -1.8037   -0.8921    1.4899 C   0  0  0  0  0  0  0  0  0  0  0  0
   -1.1541   -0.6093    0.3317 C   0  0  0  0  0  0  0  0  0  0  0  0
    0.1600   -0.1944    0.4830 C   0  0  0  0  0  0  0  0  0  0  0  0
    1.2376    0.1868    0.0090 C   0  0  0  0  0  0  0  0  0  0  0  0
    2.2275    0.4294    1.0947 C   0  0  0  0  0  0  0  0  0  0  0  0
    2.1828    0.4303    2.4144 C   0  0  0  0  0  0  0  0  0  0  0  0
    1.1677    0.2000    3.3988 N   0  0  0  0  0  2  0  0  0  0  0  0
    3.6080    0.7626    2.4823 C   0  0  0  0  0  0  0  0  0  0  0  0
    3.6245    0.7552    1.1486 C   0  0  0  0  0  0  0  0  0  0  0  0
    4.6687    0.9952    0.1218 C   0  0  0  0  0  0  0  0  0  0  0  0
    4.6332    0.0910   -1.0248 C   0  0  0  0  0  0  0  0  0  0  0  0
    3.8113   -0.2614   -1.9502 N   0  0  0  0  0  0  0  0  0  0  0  0
    2.4829    0.1717   -2.1968 N   0  0  0  0  0  3  0  0  0  0  0  0
    1.4367    0.3593   -1.4330 C   0  0  0  0  0  0  0  0  0  0  0  0
    0.2176    0.8447   -2.1205 C   0  0  0  0  0  0  0  0  0  0  0  0
   -1.7439   -0.7286   -1.0512 C   0  0  0  0  0  0  0  0  0  0  0  0
   -3.0667   -0.1792   -1.1020 N   0  0  0  0  0  4  0  0  0  0  0  0
   -3.0224    1.0912   -1.1523 C   0  0  0  0  0  0  0  0  0  0  0  0
   -4.2438    1.8998   -1.2105 C   0  0  0  0  0  0  0  0  0  0  0  0
  1  2  1  0
  2  3  1  0
  3  4  2  3
  4  5  1  0
  5  6  2  3
  6  7  1  0
  7  8  2  3
  8  9  1  0
  9 10  2  0
 10 11  1  0
 10 12  1  0
 12 13  2  0
 13 14  1  0
 14 15  1  0
 15 16  2  3
 16 17  1  0
 17 18  2  3
 18 19  1  0
  6 20  1  0
 20 21  1  0
 21 22  2  3
 22 23  1  0
 21  1  1  0
 18  8  1  0
 13  9  1  0
M  CHG  2  17   1  21   1
M  RAD  2  11   2  17   2
M  END
$$$$
