
     RDKit          3D

 26 26  0  0  0  0  0  0  0  0999 V2000
    2.8684    2.4624    0.5165 C   0  0  0  0  0  0  0  0  0  0  0  0
    3.0562    1.5555   -0.6567 C   0  0  1  0  0  0  0  0  0  0  0  0
    4.4768    1.1827   -0.9157 C   0  0  0  0  0  0  0  0  0  0  0  0
    5.0049    0.1473    0.0668 C   0  0  2  0  0  0  0  0  0  0  0  0
    5.3838   -0.9599   -0.7109 O   0  0  0  0  0  0  0  0  0  0  0  0
    3.8392   -0.3243    0.9316 C   0  0  2  0  0  0  0  0  0  0  0  0
    4.2367   -1.3168    1.7986 O   0  0  0  0  0  0  0  0  0  0  0  0
    2.7562   -0.7790    0.0096 C   0  0  1  0  0  0  0  0  0  0  0  0
    1.8907   -1.6963    0.5519 O   0  0  0  0  0  0  0  0  0  0  0  0
    2.1071    0.3947   -0.6376 C   0  0  1  0  0  0  0  0  0  0  0  0
    0.8970    0.8204    0.0359 N   0  0  0  0  0  0  0  0  0  0  0  0
   -0.0861   -0.2390    0.1052 C   0  0  0  0  0  3  0  0  0  0  0  0
   -1.4999    0.2805   -0.0988 C   0  0  0  0  0  0  0  0  0  0  0  0
   -1.8952    1.2924    0.9274 C   0  0  0  0  0  0  0  0  0  0  0  0
   -1.1202    2.4370    0.8913 O   0  0  0  0  0  0  0  0  0  0  0  0
   -1.1929    3.0860   -0.3301 C   0  0  0  0  0  3  0  0  0  0  0  0
   -1.5718    4.4016   -0.0789 O   0  0  0  0  0  0  0  0  0  0  0  0
   -2.3184    4.4278    1.0798 C   0  0  0  0  0  2  0  0  0  0  0  0
   -1.6370    0.8621   -1.3676 O   0  0  0  0  0  0  0  0  0  0  0  0
   -2.4270   -0.9044   -0.0062 C   0  0  2  0  0  0  0  0  0  0  0  0
   -2.0401   -1.8814   -1.0877 C   0  0  0  0  0  2  0  0  0  0  0  0
   -3.8683   -0.5257   -0.1114 C   0  0  0  0  0  3  0  0  0  0  0  0
   -4.8718   -2.0303    0.0137 S   0  0  0  0  0  0  0  0  0  0  0  0
   -3.8824   -3.3992    0.2104 O   0  0  0  0  0  0  0  0  0  0  0  0
   -4.0892   -3.9995    1.3473 O   0  0  0  0  0  0  0  0  0  0  0  0
   -4.0167   -5.2947    1.1350 O   0  0  0  0  0  0  0  0  0  0  0  0
  2  1  1  1
  2  3  1  0
  3  4  1  0
  4  5  1  6
  4  6  1  0
  6  7  1  1
  6  8  1  0
  8  9  1  1
  8 10  1  0
 10 11  1  1
 11 12  1  0
 12 13  1  0
 13 14  1  0
 14 15  1  0
 15 16  1  0
 16 17  1  0
 17 18  1  0
 13 19  1  0
 13 20  1  0
 20 21  1  6
 20 22  1  0
 22 23  1  0
 23 24  1  0
 24 25  1  0
 25 26  1  0
 10  2  1  0
M  RAD  5  12   2  16   2  18   3  21   3  22   2
M  END
$$$$
