
     RDKit          3D

 16 16  0  0  0  0  0  0  0  0999 V2000
    1.6288    2.9660    0.2189 O   0  0  0  0  0  0  0  0  0  0  0  0
    1.5189    1.8577   -0.5866 C   0  0  0  0  0  0  0  0  0  0  0  0
    0.3823    0.9566   -0.2379 C   0  0  1  0  0  0  0  0  0  0  0  0
   -0.8876    1.6329   -0.3312 N   0  0  0  0  0  0  0  0  0  0  0  0
   -1.9998    0.7806   -0.1056 C   0  0  2  0  0  0  0  0  0  0  0  0
   -3.0376    1.3141    0.8199 C   0  0  0  0  0  0  0  0  0  0  0  0
   -4.0525    0.3360    0.9180 O   0  0  0  0  0  0  0  0  0  0  0  0
   -1.5486   -0.6106    0.2128 C   0  0  1  0  0  0  0  0  0  0  0  0
   -2.5885   -1.4678    0.5224 O   0  0  0  0  0  0  0  0  0  0  0  0
   -0.7999   -1.0986   -1.0358 C   0  0  2  0  0  0  0  0  0  0  0  0
   -0.5619   -2.4552   -0.9936 O   0  0  0  0  0  0  0  0  0  0  0  0
    0.4636   -0.2710   -1.1118 C   0  0  2  0  0  0  0  0  0  0  0  0
    1.4987   -1.0612   -0.6225 O   0  0  0  0  0  0  0  0  0  0  0  0
    2.7034   -0.3594   -0.6664 C   0  0  0  0  0  0  0  0  0  0  0  0
    3.7589   -1.0936   -0.1945 O   0  0  0  0  0  0  0  0  0  0  0  0
    3.5217   -1.4264    1.0627 O   0  0  0  0  0  0  0  0  0  0  0  0
  1  2  1  0
  3  2  1  6
  3  4  1  0
  4  5  1  0
  5  6  1  1
  6  7  1  0
  5  8  1  0
  8  9  1  6
  8 10  1  0
 10 11  1  1
 10 12  1  0
 12 13  1  1
 13 14  1  0
 14 15  1  0
 15 16  1  0
 12  3  1  0
M  END
$$$$
