
     RDKit          3D

 25 27  0  0  0  0  0  0  0  0999 V2000
   -1.2654   -1.9763   -0.6481 C   0  0  0  0  0  0  0  0  0  0  0  0
   -2.5143   -2.8518   -0.6505 C   0  0  0  0  0  0  0  0  0  0  0  0
   -2.5215   -3.6610   -1.9368 C   0  0  0  0  0  0  0  0  0  0  0  0
   -3.7486   -1.9840   -0.5810 C   0  0  0  0  0  0  0  0  0  0  0  0
   -3.6386   -0.9833    0.5337 C   0  0  0  0  0  0  0  0  0  0  0  0
   -4.2617    0.3518    0.1850 C   0  0  0  0  0  0  0  0  0  0  0  0
   -3.2288    1.2631   -0.4621 C   0  0  1  0  0  0  0  0  0  0  0  0
   -3.9197    2.2593   -1.3851 C   0  0  0  0  0  0  0  0  0  0  0  0
   -2.4919    1.9531    0.6586 C   0  0  0  0  0  3  0  0  0  0  0  0
   -1.6458    3.0943    0.1522 C   0  0  0  0  0  0  0  0  0  0  0  0
   -0.2212    2.6248   -0.0628 C   0  0  0  0  0  0  0  0  0  0  0  0
    0.5745    2.5857    1.2125 C   0  0  2  0  0  0  0  0  0  0  0  0
    1.1975    3.9295    1.5431 C   0  0  0  0  0  0  0  0  0  0  0  0
    1.6749    1.5635    1.1761 C   0  0  0  0  0  0  0  0  0  0  0  0
    1.4769    0.5185    0.1112 C   0  0  1  0  0  0  0  0  0  0  0  0
    1.6834    1.0847   -1.2676 C   0  0  0  0  0  0  0  0  0  0  0  0
    3.1513    1.0781   -1.6726 C   0  0  0  0  0  0  0  0  0  0  0  0
    3.9646    1.2135   -0.4135 C   0  0  0  0  0  0  0  0  0  0  0  0
    3.9083   -0.0386    0.4125 C   0  0  0  0  0  0  0  0  0  0  0  0
    4.8411   -1.0886   -0.1778 C   0  0  0  0  0  0  0  0  0  0  0  0
    2.4918   -0.5826    0.3153 C   0  0  0  0  0  3  0  0  0  0  0  0
    2.1822   -1.8743    1.1673 S   0  0  0  0  0  0  0  0  0  0  0  0
    1.7560   -3.2990    1.2597 N   0  0  0  0  0  0  0  0  0  0  0  0
    0.9545   -2.8361    0.0224 C   0  0  0  0  0  0  0  0  0  0  0  0
   -0.3996   -2.3445    0.5084 C   0  0  0  0  0  3  0  0  0  0  0  0
  1  2  1  0
  2  3  1  0
  2  4  1  0
  4  5  1  0
  5  6  1  0
  6  7  1  0
  7  8  1  6
  7  9  1  0
  9 10  1  0
 10 11  1  0
 11 12  1  0
 12 13  1  6
 12 14  1  0
 15 14  1  1
 15 16  1  0
 16 17  1  0
 17 18  1  0
 18 19  1  0
 19 20  1  0
 15 21  1  0
 21 22  1  0
 22 23  1  0
 23 24  1  0
 24 25  1  0
 25  1  1  0
 21 19  1  0
 24 22  1  0
M  RAD  3   9   2  21   2  25   2
M  END
$$$$
