
     RDKit          3D

 19 22  0  0  0  0  0  0  0  0999 V2000
   -2.2700    0.4805   -0.8806 C   0  0  0  0  0  0  0  0  0  0  0  0
   -3.7960    0.4837   -1.7427 Cl  0  0  0  0  0  0  0  0  0  0  0  0
   -2.4350    0.7125    0.6156 C   0  0  0  0  0  0  0  0  0  0  0  0
   -1.3937   -0.2144    1.2788 C   0  0  0  0  0  0  0  0  0  0  0  0
   -0.7572    0.2446    2.5552 C   0  0  0  0  0  0  0  0  0  0  0  0
   -2.8433   -0.5654    1.3738 C   0  0  0  0  0  3  0  0  0  0  0  0
   -1.2794    1.4820   -1.4594 C   0  0  0  0  0  0  0  0  0  0  0  0
   -1.5628   -0.8830   -0.9599 C   0  0  0  0  0  0  0  0  0  0  0  0
   -0.5580   -0.6453    0.1413 C   0  0  0  0  0  0  0  0  0  0  0  0
    0.4109    0.4118   -0.3667 C   0  0  0  0  0  0  0  0  0  0  0  0
    0.6663    1.6920    0.8269 Cl  0  0  0  0  0  0  0  0  0  0  0  0
    0.0002    0.9483   -1.5736 O   0  0  0  0  0  0  0  0  0  0  0  0
    0.5201   -1.6172    0.3241 C   0  0  0  0  0  0  0  0  0  0  0  0
    1.4576   -0.6525   -0.4176 C   0  0  0  0  0  0  0  0  0  0  0  0
    2.6981   -0.2903    0.3685 C   0  0  0  0  0  0  0  0  0  0  0  0
    3.6490   -1.2900    0.3052 F   0  0  0  0  0  0  0  0  0  0  0  0
    3.2555    0.8177   -0.2732 F   0  0  0  0  0  0  0  0  0  0  0  0
    2.4298    0.0802    1.6563 F   0  0  0  0  0  0  0  0  0  0  0  0
    1.8079   -1.1953   -1.7720 C   0  0  0  0  0  0  0  0  0  0  0  0
  1  2  1  0
  1  3  1  0
  3  4  1  0
  4  5  1  0
  3  6  1  0
  1  7  1  0
  1  8  1  0
  8  9  1  0
  9 10  1  0
 10 11  1  0
 10 12  1  0
  9 13  1  0
 13 14  1  0
 14 15  1  0
 15 16  1  0
 15 17  1  0
 15 18  1  0
 14 19  1  0
  6  4  1  0
  9  4  1  0
 12  7  1  0
 14 10  1  0
M  RAD  1   6   2
M  END
$$$$
