
     RDKit          3D

 30 29  0  0  0  0  0  0  0  0999 V2000
   -4.8018    4.0579   -0.7418 N   0  0  0  0  0  0  0  0  0  0  0  0
   -3.7327    3.7999   -0.0742 C   0  0  0  0  0  0  0  0  0  0  0  0
   -3.4428    4.5700    1.0672 N   0  0  0  0  0  0  0  0  0  0  0  0
   -2.7598    2.8408   -0.6639 C   0  0  0  0  0  0  0  0  0  0  0  0
   -2.4953    1.5925    0.0506 C   0  0  0  0  0  0  0  0  0  0  0  0
   -1.0879    1.4401    0.5950 C   0  0  0  0  0  0  0  0  0  0  0  0
   -0.0877    0.9914   -0.4178 C   0  0  0  0  0  0  0  0  0  0  0  0
   -0.0992   -0.5752   -0.6389 C   0  0  0  0  0  0  0  0  0  0  0  0
   -1.3854   -1.0175   -0.0449 C   0  0  0  0  0  0  0  0  0  0  0  0
   -1.7069   -2.3072   -0.4578 N   0  0  0  0  0  0  0  0  0  0  0  0
   -2.0516   -3.2574    0.5036 C   0  0  0  0  0  0  0  0  0  0  0  0
   -3.5174   -3.3955    0.4130 N   0  0  0  0  0  0  0  0  0  0  0  0
   -3.7065   -4.8329    0.6113 C   0  0  0  0  0  0  0  0  0  0  0  0
   -3.5246   -5.5003   -0.6940 N   0  0  0  0  0  0  0  0  0  0  0  0
   -2.1038   -5.5193   -1.0491 C   0  0  0  0  0  0  0  0  0  0  0  0
   -2.6964   -2.1456   -1.5738 C   0  0  0  0  0  0  0  0  0  0  0  0
   -3.7869   -1.1654   -1.2226 C   0  0  0  0  0  0  0  0  0  0  0  0
   -3.7138   -0.6166    0.1574 C   0  0  0  0  0  0  0  0  0  0  0  0
    0.9756   -1.1011    0.2268 C   0  0  0  0  0  0  0  0  0  0  0  0
    1.6583   -0.5997    0.9798 C   0  0  0  0  0  0  0  0  0  0  0  0
    1.6889    0.8326    1.2887 C   0  0  0  0  0  0  0  0  0  0  0  0
    2.9005    1.5052    0.7193 C   0  0  0  0  0  0  0  0  0  0  0  0
    2.7532    3.4054    0.9989 Br  0  0  0  0  0  0  0  0  0  0  0  0
    3.1276    1.2547   -0.6130 O   0  0  0  0  0  0  0  0  0  0  0  0
    4.5411    2.1362   -1.1012 S   0  0  0  0  0  0  0  0  0  0  0  0
    5.5016    2.5394    0.3586 C   0  0  0  0  0  0  0  0  0  0  0  0
    5.9332    1.5994    1.2050 C   0  0  0  0  0  0  0  0  0  0  0  0
    5.8719    0.2035    0.8552 C   0  0  0  0  0  0  0  0  0  0  0  0
    6.3514   -0.1958   -0.3947 N   0  0  0  0  0  0  0  0  0  0  0  0
    5.3974   -0.5394    1.6954 O   0  0  0  0  0  0  0  0  0  0  0  0
  1  2  2  0
  2  3  1  0
  2  4  1  0
  4  5  1  0
  5  6  1  0
  6  7  1  0
  7  8  1  0
  8  9  1  0
  9 10  1  0
 10 11  1  0
 11 12  1  0
 12 13  1  0
 13 14  1  0
 14 15  1  0
 10 16  1  0
 16 17  1  0
 17 18  1  0
  8 19  1  0
 19 20  2  3
 20 21  1  0
 21 22  1  0
 22 23  1  0
 22 24  1  0
 24 25  1  0
 25 26  1  0
 26 27  2  3
 27 28  1  0
 28 29  1  0
 28 30  2  0
M  END
$$$$
