
     RDKit          3D

 31 32  0  0  0  0  0  0  0  0999 V2000
   -4.0951   -0.5088    5.6359 O   0  0  0  0  0  0  0  0  0  0  0  0
   -3.1907    0.1917    4.2826 S   0  0  0  0  0  0  0  0  0  0  0  0
   -3.7375   -0.4035    2.9174 C   0  0  0  0  0  0  0  0  0  0  0  0
   -4.8491   -1.3692    2.8538 C   0  0  0  0  0  0  0  0  0  0  0  0
   -5.7703   -0.8862    1.9184 O   0  0  0  0  0  0  0  0  0  0  0  0
   -7.2022   -2.0126    1.7308 Br  0  0  0  0  0  0  0  0  0  0  0  0
   -3.0232   -0.1056    1.6544 C   0  0  0  0  0  0  0  0  0  0  0  0
   -1.3559    0.0469    1.7870 S   0  0  0  0  0  0  0  0  0  0  0  0
   -1.3940   -2.3233    2.3870 C   0  0  0  0  0  0  0  0  0  0  0  0
   -2.1907   -1.7648    3.8148 S   0  0  0  0  0  0  0  0  0  0  0  0
   -3.1321   -2.7828    4.5605 C   0  0  0  0  0  0  0  0  0  0  0  0
   -3.8269   -1.5908    6.1429 S   0  0  0  0  0  0  0  0  0  0  0  0
   -6.1379   -2.7374    5.2633 Br  0  0  0  0  0  0  0  0  0  0  0  0
   -0.2627   -0.2742    0.5919 N   0  0  0  0  0  0  0  0  0  0  0  0
    1.1686    0.7100    0.7946 S   0  0  0  0  0  0  0  0  0  0  0  0
    1.7024    2.0419   -0.3995 S   0  0  0  0  0  0  0  0  0  0  0  0
    0.5953    3.1589   -0.9251 C   0  0  0  0  0  0  0  0  0  0  0  0
    0.0770    2.6590   -2.1692 N   0  0  0  0  0  0  0  0  0  0  0  0
    1.1820    1.9206   -2.7690 C   0  0  0  0  0  0  0  0  0  0  0  0
    0.8150    1.3417   -4.0780 C   0  0  0  0  0  0  0  0  0  0  0  0
   -0.2946    1.4950   -4.5525 O   0  0  0  0  0  0  0  0  0  0  0  0
    2.0963    1.5513   -1.9893 C   0  0  0  0  0  0  0  0  0  0  0  0
    3.4310    0.7899   -2.1451 N   0  0  0  0  0  0  0  0  0  0  0  0
    3.7621    0.3822   -3.4550 C   0  0  0  0  0  0  0  0  0  0  0  0
    3.9145    1.3715   -4.4481 N   0  0  0  0  0  2  0  0  0  0  0  0
    3.6975    0.9730   -5.6996 O   0  0  0  0  0  0  0  0  0  0  0  0
    4.3369   -0.2156   -6.0231 C   0  0  0  0  0  1  0  0  0  0  0  0
    4.6972   -1.1093   -3.6176 S   0  0  0  0  0  0  0  0  0  0  0  0
    6.2971   -0.9065   -2.9413 N   0  0  0  0  0  0  0  0  0  0  0  0
    6.3223   -0.6587   -1.2575 P   0  0  0  0  0  0  0  0  0  0  0  0
    6.3677   -0.4524    0.1346 N   0  0  0  0  0  0  0  0  0  0  0  0
  1  2  1  0
  2  3  2  3
  3  4  1  0
  4  5  1  0
  5  6  1  0
  3  7  1  0
  7  8  1  0
  8  9  1  0
  9 10  1  0
 10 11  2  3
 11 12  1  0
 12 13  1  0
  8 14  1  0
 14 15  1  0
 15 16  1  0
 16 17  2  0
 17 18  1  0
 18 19  1  0
 19 20  1  0
 20 21  2  0
 16 22  2  0
 22 23  1  0
 23 24  1  0
 24 25  1  0
 25 26  1  0
 26 27  1  0
 24 28  1  0
 28 29  1  0
 29 30  1  0
 30 31  3  0
 12  1  1  0
 22 19  1  0
M  CHG  1  25   1
M  RAD  2  25   3  27   2
M  END
$$$$
