
     RDKit          3D

 22 21  0  0  0  0  0  0  0  0999 V2000
   -5.9487    2.9196   -0.3161 C   0  0  0  0  0  0  0  0  0  0  0  0
   -4.9108    2.0798    0.3282 C   0  0  0  0  0  0  0  0  0  0  0  0
   -4.3642    2.4723    1.3990 O   0  0  0  0  0  0  0  0  0  0  0  0
   -4.5191    0.8661   -0.2148 O   0  0  0  0  0  0  0  0  0  0  0  0
   -3.5258    0.0850    0.4217 C   0  0  0  0  0  3  0  0  0  0  0  0
   -3.2838   -1.1530   -0.3416 C   0  0  0  0  0  0  0  0  0  0  0  0
   -2.2163   -1.2681   -1.3642 C   0  0  0  0  0  0  0  0  0  0  0  0
   -3.9820   -2.1375   -0.1374 O   0  0  0  0  0  0  0  0  0  0  0  0
   -2.2605    0.8795    0.5839 C   0  0  0  0  0  0  0  0  0  0  0  0
   -1.2216    0.0795    1.3163 C   0  0  0  0  0  0  0  0  0  0  0  0
    0.0229    0.9300    1.4472 C   0  0  0  0  0  3  0  0  0  0  0  0
    1.0564    0.0988    2.1904 C   0  0  0  0  0  0  0  0  0  0  0  0
    1.2930   -1.1440    1.3332 C   0  0  0  0  0  0  0  0  0  0  0  0
    1.7941   -0.6771    0.0054 C   0  0  2  0  0  0  0  0  0  0  0  0
    0.8325    0.2291   -0.7177 C   0  0  0  0  0  0  0  0  0  0  0  0
    2.2947   -1.6909   -0.7934 O   0  0  0  0  0  0  0  0  0  0  0  0
    3.3481   -2.2995   -0.1489 C   0  0  0  0  0  0  0  0  0  0  0  0
    4.4552   -1.3564    0.1443 C   0  0  0  0  0  0  0  0  0  0  0  0
    5.4397   -1.7868    0.7129 O   0  0  0  0  0  0  0  0  0  0  0  0
    4.3781    0.0685   -0.2378 C   0  0  0  0  0  0  0  0  0  0  0  0
    5.5958    0.8120    0.1561 C   0  0  0  0  0  0  0  0  0  0  0  0
    5.7220    1.9931   -0.0710 O   0  0  0  0  0  0  0  0  0  0  0  0
  1  2  1  0
  2  3  2  0
  2  4  1  0
  4  5  1  0
  5  6  1  0
  6  7  1  0
  6  8  2  0
  5  9  1  0
  9 10  1  0
 10 11  1  0
 11 12  1  0
 12 13  1  0
 13 14  1  0
 14 15  1  6
 14 16  1  0
 16 17  1  0
 17 18  1  0
 18 19  2  0
 18 20  1  0
 20 21  1  0
 21 22  2  0
M  RAD  2   5   2  11   2
M  END
$$$$
