
     RDKit          3D

 25 26  0  0  0  0  0  0  0  0999 V2000
   -1.7227    0.4995   -2.1726 C   0  0  0  0  0  0  0  0  0  0  0  0
   -1.7602   -0.6075   -1.1997 C   0  0  1  0  0  0  0  0  0  0  0  0
   -0.4882   -0.7577   -0.3645 C   0  0  0  0  0  0  0  0  0  0  0  0
   -0.8957   -1.7309    0.7539 C   0  0  2  0  0  0  0  0  0  0  0  0
    0.1617   -2.3988    1.3041 O   0  0  0  0  0  0  0  0  0  0  0  0
   -1.9333   -2.7162    0.2693 C   0  0  2  0  0  0  0  0  0  0  0  0
   -1.5074   -3.2462   -0.9380 O   0  0  0  0  0  0  0  0  0  0  0  0
   -3.2767   -2.0272   -0.0058 C   0  0  1  0  0  0  0  0  0  0  0  0
   -4.1325   -2.1145    1.0623 O   0  0  0  0  0  0  0  0  0  0  0  0
   -2.9019   -0.5454   -0.2075 C   0  0  1  0  0  0  0  0  0  0  0  0
   -2.5442   -0.0675    1.0853 N   0  0  0  0  0  0  0  0  0  0  0  0
   -1.4639    0.8347    1.1883 C   0  0  0  0  0  3  0  0  0  0  0  0
   -0.2959    0.5826    0.3137 C   0  0  0  0  0  0  0  0  0  0  0  0
   -0.2370    1.6688   -0.7360 C   0  0  0  0  0  0  0  0  0  0  0  0
   -0.0646    2.9186   -0.2170 O   0  0  0  0  0  0  0  0  0  0  0  0
   -1.0690    3.3215    0.6487 C   0  0  0  0  0  3  0  0  0  0  0  0
   -2.1671    3.8480   -0.0173 O   0  0  0  0  0  0  0  0  0  0  0  0
    1.0457    0.5848    1.0127 C   0  0  2  0  0  0  0  0  0  0  0  0
    1.2549    1.8190    1.6589 O   0  0  0  0  0  0  0  0  0  0  0  0
    2.0907    0.4366   -0.1036 C   0  0  2  0  0  0  0  0  0  0  0  0
    1.8539   -0.7867   -0.7184 O   0  0  0  0  0  0  0  0  0  0  0  0
    3.4887    0.5222    0.4626 C   0  0  0  0  0  3  0  0  0  0  0  0
    4.4461    0.3671   -0.7004 C   0  0  0  0  0  0  0  0  0  0  0  0
    5.8582    0.4487   -0.1642 C   0  0  0  0  0  3  0  0  0  0  0  0
    6.2603   -0.8535    0.1685 O   0  0  0  0  0  0  0  0  0  0  0  0
  2  1  1  1
  2  3  1  0
  3  4  1  0
  4  5  1  6
  4  6  1  0
  6  7  1  6
  6  8  1  0
  8  9  1  1
  8 10  1  0
 10 11  1  1
 11 12  1  0
 12 13  1  0
 13 14  1  0
 14 15  1  0
 15 16  1  0
 16 17  1  0
 13 18  1  0
 18 19  1  6
 18 20  1  0
 20 21  1  1
 20 22  1  0
 22 23  1  0
 23 24  1  0
 24 25  1  0
 10  2  1  0
 13  3  1  0
M  RAD  4  12   2  16   2  22   2  24   2
M  END
$$$$
