
     RDKit          3D

  3  3  0  0  0  0  0  0  0  0999 V2000
   -0.0501    0.7367   -0.4552 O   0  0  0  0  0  0  0  0  0  0  0  0
    0.5292   -0.2768    0.1091 C   0  0  0  0  0  0  0  0  0  0  0  0
   -0.4790   -0.4599   -0.7049 N   0  0  0  0  0  3  0  0  0  0  0  0
  1  2  1  0
  2  3  2  0
  3  1  1  0
M  CHG  1   3   1
M  RAD  1   3   2
M  END
$$$$
