
     RDKit          3D

 10  9  0  0  0  0  0  0  0  0999 V2000
    4.8004    0.3277    0.1011 F   0  0  0  0  0  0  0  0  0  0  0  0
    3.8498    0.4288    1.1229 C   0  0  0  0  0  0  0  0  0  0  0  0
    2.6340   -0.3379    0.6682 C   0  0  0  0  0  3  0  0  0  0  0  0
    1.7483    0.5305   -0.0471 O   0  0  0  0  0  0  0  0  0  0  0  0
    0.4087    0.2711    0.1048 N   0  0  0  0  0  0  0  0  0  0  0  0
   -0.3440    0.0027   -0.9195 C   0  0  0  0  0  0  0  0  0  0  0  0
   -1.7142   -0.2597   -0.7384 N   0  0  0  0  0  3  0  0  0  0  0  0
   -2.6085    0.6609   -0.8668 C   0  0  0  0  0  0  0  0  0  0  0  0
   -4.0443    0.4579   -0.6932 C   0  0  0  0  0  0  0  0  0  0  0  0
   -4.7301    0.8716    1.2679 I   0  0  0  0  0  0  0  0  0  0  0  0
  1  2  1  0
  2  3  1  0
  3  4  1  0
  4  5  1  0
  5  6  2  3
  6  7  1  0
  7  8  2  3
  8  9  1  0
  9 10  1  0
M  CHG  1   7   1
M  RAD  2   3   2   7   2
M  END
$$$$
