
     RDKit          2D

 70 69  0  0  0  0  0  0  0  0999 V2000
    0.0000    0.0000    0.0000 C   0  0  0  0  0  0  0  0  0  0  0  0
    1.2990    0.7500    0.0000 O   0  0  0  0  0  0  0  0  0  0  0  0
    2.5981   -0.0000    0.0000 C   0  0  0  0  0  3  0  0  0  0  0  0
    3.8971    0.7500    0.0000 O   0  0  0  0  0  0  0  0  0  0  0  0
    5.1962   -0.0000    0.0000 C   0  0  0  0  0  0  0  0  0  0  0  0
    6.4952    0.7500    0.0000 C   0  0  0  0  0  0  0  0  0  0  0  0
    7.7942   -0.0000    0.0000 C   0  0  0  0  0  0  0  0  0  0  0  0
    5.1962   -1.5000    0.0000 C   0  0  0  0  0  0  0  0  0  0  0  0
    3.8971   -2.2500    0.0000 O   0  0  0  0  0  0  0  0  0  0  0  0
    3.8971   -3.7500    0.0000 C   0  0  0  0  0  2  0  0  0  0  0  0
    6.4952   -2.2500    0.0000 C   0  0  0  0  0  0  0  0  0  0  0  0
    6.4952   -3.7500    0.0000 C   0  0  0  0  0  0  0  0  0  0  0  0
    7.7942   -4.5000    0.0000 C   0  0  0  0  0  0  0  0  0  0  0  0
    7.7942   -6.0000    0.0000 O   0  0  0  0  0  0  0  0  0  0  0  0
    9.0933   -6.7500    0.0000 C   0  0  0  0  0  3  0  0  0  0  0  0
    9.0933   -8.2500    0.0000 C   0  0  0  0  0  2  0  0  0  0  0  0
    5.1962   -4.5000    0.0000 C   0  0  0  0  0  0  0  0  0  0  0  0
    5.1962   -6.0000    0.0000 O   0  0  0  0  0  0  0  0  0  0  0  0
    3.8971   -6.7500    0.0000 C   0  0  0  0  0  0  0  0  0  0  0  0
    3.8971   -8.2500    0.0000 C   0  0  0  0  0  3  0  0  0  0  0  0
    2.5981   -9.0000    0.0000 C   0  0  0  0  0  0  0  0  0  0  0  0
    1.2990   -8.2500    0.0000 O   0  0  0  0  0  0  0  0  0  0  0  0
   -0.0000   -9.0000    0.0000 O   0  0  0  0  0  0  0  0  0  0  0  0
   -1.2990   -8.2500    0.0000 C   0  0  0  0  0  3  0  0  0  0  0  0
   -2.5981   -9.0000    0.0000 C   0  0  0  0  0  3  0  0  0  0  0  0
   -3.8971   -8.2500    0.0000 C   0  0  0  0  0  3  0  0  0  0  0  0
   -5.1962   -9.0000    0.0000 C   0  0  0  0  0  0  0  0  0  0  0  0
   -6.4952   -8.2500    0.0000 O   0  0  0  0  0  0  0  0  0  0  0  0
   -5.1962  -10.5000    0.0000 O   0  0  0  0  0  0  0  0  0  0  0  0
    2.5981  -10.5000    0.0000 C   0  0  0  0  0  2  0  0  0  0  0  0
    2.5981   -6.0000    0.0000 C   0  0  0  0  0  3  0  0  0  0  0  0
    1.2990   -6.7500    0.0000 O   0  0  0  0  0  0  0  0  0  0  0  0
    0.0000   -6.0000    0.0000 C   0  0  0  0  0  0  0  0  0  0  0  0
   -1.2990   -6.7500    0.0000 O   0  0  0  0  0  0  0  0  0  0  0  0
   -2.5981   -6.0000    0.0000 C   0  0  0  0  0  0  0  0  0  0  0  0
   -2.5981   -4.5000    0.0000 C   0  0  0  0  0  2  0  0  0  0  0  0
   -3.8971   -6.7500    0.0000 O   0  0  0  0  0  0  0  0  0  0  0  0
   -5.1962   -6.0000    0.0000 C   0  0  0  0  0  3  0  0  0  0  0  0
   -6.4952   -6.7500    0.0000 O   0  0  0  0  0  0  0  0  0  0  0  0
   -7.7942   -6.0000    0.0000 C   0  0  0  0  0  3  0  0  0  0  0  0
   -9.0933   -6.7500    0.0000 C   0  0  0  0  0  3  0  0  0  0  0  0
  -10.3923   -6.0000    0.0000 O   0  0  0  0  0  0  0  0  0  0  0  0
  -11.6913   -6.7500    0.0000 C   0  0  0  0  0  3  0  0  0  0  0  0
  -12.9904   -6.0000    0.0000 O   0  0  0  0  0  0  0  0  0  0  0  0
  -14.2894   -6.7500    0.0000 C   0  0  0  0  0  0  0  0  0  0  0  0
  -15.5885   -6.0000    0.0000 C   0  0  0  0  0  2  0  0  0  0  0  0
  -14.2894   -8.2500    0.0000 C   0  0  0  0  0  3  0  0  0  0  0  0
  -15.5885   -9.0000    0.0000 C   0  0  0  0  0  2  0  0  0  0  0  0
   -0.0000   -4.5000    0.0000 O   0  0  0  0  0  0  0  0  0  0  0  0
   -1.2990   -3.7500    0.0000 O   0  0  0  0  0  0  0  0  0  0  0  0
   -1.2990   -2.2500    0.0000 C   0  0  0  0  0  3  0  0  0  0  0  0
   -2.5981   -1.5000    0.0000 O   0  0  0  0  0  0  0  0  0  0  0  0
   -2.5981   -0.0000    0.0000 C   0  0  0  0  0  0  0  0  0  0  0  0
   -3.8971    0.7500    0.0000 C   0  0  0  0  0  0  0  0  0  0  0  0
   -3.8971    2.2500    0.0000 O   0  0  0  0  0  0  0  0  0  0  0  0
   -5.1962   -0.0000    0.0000 O   0  0  0  0  0  0  0  0  0  0  0  0
   -6.4952    0.7500    0.0000 C   0  0  0  0  0  3  0  0  0  0  0  0
   -7.7942   -0.0000    0.0000 O   0  0  0  0  0  0  0  0  0  0  0  0
   -9.0933    0.7500    0.0000 C   0  0  0  0  0  0  0  0  0  0  0  0
  -10.3923   -0.0000    0.0000 C   0  0  0  0  0  2  0  0  0  0  0  0
   -9.0933    2.2500    0.0000 O   0  0  0  0  0  0  0  0  0  0  0  0
  -10.3923    3.0000    0.0000 C   0  0  0  0  0  3  0  0  0  0  0  0
  -10.3923    4.5000    0.0000 O   0  0  0  0  0  0  0  0  0  0  0  0
  -11.6913    5.2500    0.0000 C   0  0  0  0  0  3  0  0  0  0  0  0
  -11.6913    6.7500    0.0000 C   0  0  0  0  0  3  0  0  0  0  0  0
  -12.9904    7.5000    0.0000 C   0  0  0  0  0  3  0  0  0  0  0  0
  -12.9904    9.0000    0.0000 C   0  0  0  0  0  3  0  0  0  0  0  0
  -14.2894    9.7500    0.0000 O   0  0  0  0  0  0  0  0  0  0  0  0
  -14.2894   11.2500    0.0000 C   0  0  0  0  0  0  0  0  0  0  0  0
  -15.5885   12.0000    0.0000 O   0  0  0  0  0  0  0  0  0  0  0  0
  1  2  1  0
  2  3  1  0
  3  4  1  0
  4  5  1  0
  5  6  1  6
  6  7  1  0
  5  8  1  0
  8  9  1  0
  9 10  1  0
  8 11  1  6
 12 11  1  6
 12 13  1  0
 13 14  1  0
 14 15  1  0
 15 16  1  0
 12 17  1  0
 17 18  1  0
 18 19  1  0
 19 20  1  6
 20 21  1  0
 21 22  1  0
 22 23  1  0
 23 24  1  0
 24 25  1  0
 25 26  1  0
 26 27  1  0
 27 28  1  0
 27 29  1  0
 21 30  1  1
 19 31  1  0
 31 32  1  0
 33 32  1  6
 33 34  1  0
 34 35  1  0
 35 36  1  1
 35 37  1  0
 37 38  1  0
 38 39  1  0
 39 40  1  0
 40 41  1  0
 41 42  1  0
 42 43  1  0
 43 44  1  0
 44 45  1  0
 45 46  1  1
 45 47  1  0
 47 48  1  0
 33 49  1  0
 49 50  1  0
 50 51  1  0
 51 52  1  0
 52 53  1  0
 53 54  1  0
 54 55  1  1
 54 56  1  0
 56 57  1  0
 57 58  1  0
 58 59  1  0
 59 60  1  6
 59 61  1  0
 61 62  1  0
 62 63  1  0
 63 64  1  0
 64 65  1  0
 65 66  1  0
 66 67  1  0
 67 68  1  0
 68 69  1  0
 69 70  2  0
M  RAD  8   3   2  10   3  15   2  16   3  20   2  24   2  25   2  26   2
M  RAD  8  30   3  31   2  36   3  38   2  40   2  41   2  43   2  46   3
M  RAD  8  47   2  48   3  51   2  57   2  60   3  62   2  64   2  65   2
M  RAD  2  66   2  67   2
M  END
$$$$
