
     RDKit          3D

 16 15  0  0  0  0  0  0  0  0999 V2000
   -4.5926   -1.0437    1.1775 C   0  0  0  0  0  0  0  0  0  0  0  0
   -3.9455   -0.1514    0.1874 C   0  0  0  0  0  0  0  0  0  0  0  0
   -4.5572    0.8706   -0.2526 O   0  0  0  0  0  0  0  0  0  0  0  0
   -2.6569   -0.4499   -0.2534 O   0  0  0  0  0  0  0  0  0  0  0  0
   -2.0883    0.4373   -1.1994 C   0  0  0  0  0  3  0  0  0  0  0  0
   -1.3677    1.4960   -0.4635 C   0  0  0  0  0  0  0  0  0  0  0  0
   -1.8604    1.8846    0.5964 O   0  0  0  0  0  0  0  0  0  0  0  0
   -1.2634   -0.2513   -2.2378 C   0  0  0  0  0  0  0  0  0  0  0  0
   -0.0372   -0.9340   -1.6748 C   0  0  0  0  0  0  0  0  0  0  0  0
    0.8184    0.1431   -1.0060 C   0  0  0  0  0  3  0  0  0  0  0  0
    2.0699   -0.5234   -0.4260 C   0  0  0  0  0  0  0  0  0  0  0  0
    2.8980    0.5515    0.2270 C   0  0  0  0  0  3  0  0  0  0  0  0
    4.1556   -0.0562    0.8209 C   0  0  2  0  0  0  0  0  0  0  0  0
    4.9641   -0.7125   -0.2743 C   0  0  0  0  0  0  0  0  0  0  0  0
    3.7543   -1.1229    1.7827 C   0  0  0  0  0  0  0  0  0  0  0  0
    3.7089   -0.8823    2.9959 O   0  0  0  0  0  0  0  0  0  0  0  0
  1  2  1  0
  2  3  2  0
  2  4  1  0
  4  5  1  0
  5  6  1  0
  6  7  2  0
  5  8  1  0
  8  9  1  0
  9 10  1  0
 10 11  1  0
 11 12  1  0
 12 13  1  0
 13 14  1  6
 13 15  1  0
 15 16  2  0
M  RAD  3   5   2  10   2  12   2
M  END
$$$$
