
     RDKit          3D

 24 25  0  0  0  0  0  0  0  0999 V2000
    1.1909    0.7621    1.6797 C   0  0  0  0  0  0  0  0  0  0  0  0
    0.1684   -0.1033    2.0531 O   0  0  0  0  0  0  0  0  0  0  0  0
   -0.5409    0.4646    3.1135 C   0  0  0  0  0  3  0  0  0  0  0  0
   -1.8956    0.5807    2.8174 O   0  0  0  0  0  0  0  0  0  0  0  0
   -2.1665    0.3089    1.4811 C   0  0  2  0  0  0  0  0  0  0  0  0
   -1.7613    1.4860    0.6620 C   0  0  0  0  0  0  0  0  0  0  0  0
   -2.5341    1.6507   -0.6036 C   0  0  0  0  0  3  0  0  0  0  0  0
   -3.6121   -0.0602    1.3622 C   0  0  0  0  0  3  0  0  0  0  0  0
   -3.8263   -1.0832    0.2556 C   0  0  0  0  0  3  0  0  0  0  0  0
   -3.9740   -0.3211   -1.0381 C   0  0  0  0  0  0  0  0  0  0  0  0
   -2.6767    0.3805   -1.3928 C   0  0  0  0  0  0  0  0  0  0  0  0
   -2.7618    0.6886   -2.7610 O   0  0  0  0  0  0  0  0  0  0  0  0
   -1.5110   -0.5541   -1.2019 C   0  0  0  0  0  0  0  0  0  0  0  0
   -0.9263   -0.9875   -2.5312 C   0  0  0  0  0  0  0  0  0  0  0  0
   -0.0154   -0.0315   -2.9574 O   0  0  0  0  0  0  0  0  0  0  0  0
    0.6528    0.5272   -1.8785 C   0  0  0  0  0  0  0  0  0  0  0  0
    0.9580   -0.5326   -0.8248 C   0  0  0  0  0  0  0  0  0  0  0  0
    2.3238   -0.2755   -0.2952 C   0  0  2  0  0  0  0  0  0  0  0  0
    3.3475   -1.2933   -0.6813 C   0  0  0  0  0  0  0  0  0  0  0  0
    4.5679   -0.8902   -0.0959 O   0  0  0  0  0  0  0  0  0  0  0  0
    5.5977   -1.7565   -0.3824 C   0  0  0  0  0  2  0  0  0  0  0  0
    2.3965   -0.0022    1.1658 C   0  0  1  0  0  0  0  0  0  0  0  0
    3.6122    0.8839    1.4136 C   0  0  0  0  0  0  0  0  0  0  0  0
    3.3862    2.1823    0.6402 C   0  0  0  0  0  2  0  0  0  0  0  0
  1  2  1  0
  2  3  1  0
  3  4  1  0
  4  5  1  0
  5  6  1  0
  6  7  1  0
  5  8  1  1
  8  9  1  0
  9 10  1  0
 10 11  1  0
 11 12  1  0
 11 13  1  0
 13 14  1  0
 14 15  1  0
 15 16  1  0
 16 17  1  0
 17 18  1  0
 18 19  1  1
 19 20  1  0
 20 21  1  0
 18 22  1  0
 22 23  1  6
 23 24  1  0
 22  1  1  0
 11  7  1  0
M  RAD  6   3   2   7   2   8   2   9   2  21   3  24   3
M  END
$$$$
