
     RDKit          3D

 26 28  0  0  0  0  0  0  0  0999 V2000
   -3.0549   -2.3134    0.7999 C   0  0  0  0  0  0  0  0  0  0  0  0
   -2.6406   -1.6063    1.8466 C   0  0  0  0  0  0  0  0  0  0  0  0
   -1.3571   -0.9009    1.7936 C   0  0  0  0  0  0  0  0  0  0  0  0
   -1.3474    0.3689    1.0464 C   0  0  0  0  0  0  0  0  0  0  0  0
   -2.6446    1.0222    0.8140 C   0  0  0  0  0  3  0  0  0  0  0  0
   -2.7963    1.7720   -0.4531 C   0  0  0  0  0  0  0  0  0  0  0  0
   -1.5392    2.3473   -1.0126 C   0  0  0  0  0  0  0  0  0  0  0  0
   -3.7475    2.9469   -0.1859 C   0  0  0  0  0  0  0  0  0  0  0  0
   -3.4657    0.9534   -1.5514 C   0  0  0  0  0  0  0  0  0  0  0  0
   -3.6808   -0.4693   -1.0809 C   0  0  0  0  0  0  0  0  0  0  0  0
   -2.3792   -1.2042   -1.2655 C   0  0  0  0  0  0  0  0  0  0  0  0
   -2.3177   -2.4619   -0.4592 C   0  0  0  0  0  3  0  0  0  0  0  0
   -0.9290   -2.9917   -0.3123 C   0  0  0  0  0  0  0  0  0  0  0  0
    0.0446   -1.9341    0.1717 C   0  0  0  0  0  0  0  0  0  0  0  0
    0.0871   -0.7272   -0.7008 C   0  0  0  0  0  0  0  0  0  0  0  0
   -0.3085    0.5401    0.0213 C   0  0  0  0  0  0  0  0  0  0  0  0
    1.1890    1.3567    0.6963 S   0  0  0  0  0  0  0  0  0  0  0  0
    1.8131    2.5132   -0.4698 C   0  0  0  0  0  0  0  0  0  0  0  0
    3.0687    2.8184   -0.6489 C   0  0  0  0  0  0  0  0  0  0  0  0
    4.1895    2.2778    0.0628 C   0  0  0  0  0  0  0  0  0  0  0  0
    4.5953    1.0499    0.0660 C   0  0  0  0  0  0  0  0  0  0  0  0
    5.7791    0.6639    0.8632 C   0  0  0  0  0  0  0  0  0  0  0  0
    3.8941    0.0116   -0.7187 C   0  0  0  0  0  0  0  0  0  0  0  0
    3.8445   -1.3217   -0.0354 C   0  0  0  0  0  0  0  0  0  0  0  0
    2.4383   -2.2460   -0.7299 S   0  0  0  0  0  0  0  0  0  0  0  0
    1.2652   -2.4655    0.4950 O   0  0  0  0  0  0  0  0  0  0  0  0
  1  2  2  3
  2  3  1  0
  3  4  1  0
  4  5  1  0
  5  6  1  0
  6  7  1  0
  6  8  1  0
  6  9  1  0
  9 10  1  0
 10 11  1  0
 11 12  1  0
 12 13  1  0
 13 14  1  0
 14 15  1  0
 15 16  1  0
 16 17  1  0
 17 18  1  0
 18 19  2  3
 19 20  1  0
 20 21  2  3
 21 22  1  0
 21 23  1  0
 23 24  1  0
 24 25  1  0
 25 26  1  0
 12  1  1  0
 16  4  1  0
 26 14  1  0
M  RAD  2   5   2  12   2
M  END
$$$$
