
     RDKit          3D

 39 40  0  0  0  0  0  0  0  0999 V2000
   -4.5882   -1.9955   -1.1539 C   0  0  0  0  0  0  0  0  0  0  0  0
   -4.0676   -2.2396    0.0243 C   0  0  0  0  0  0  0  0  0  0  0  0
   -3.3093   -1.1964    0.8137 C   0  0  0  0  0  0  0  0  0  0  0  0
   -4.0841   -1.0139    2.1112 C   0  0  0  0  0  0  0  0  0  0  0  0
   -3.2503    0.0854    0.0796 C   0  0  0  0  0  0  0  0  0  0  0  0
   -4.5416    0.7189   -0.2363 C   0  0  0  0  0  0  0  0  0  0  0  0
   -5.5709    0.4279    0.5334 C   0  0  0  0  0  0  0  0  0  0  0  0
   -4.6423    1.6201   -1.3541 C   0  0  0  0  0  0  0  0  0  0  0  0
   -3.4992    1.8977   -2.1503 N   0  0  0  0  0  0  0  0  0  0  0  0
   -5.7338    2.1952   -1.6720 N   0  0  0  0  0  0  0  0  0  0  0  0
   -6.9029    1.9570   -0.9162 C   0  0  0  0  0  0  0  0  0  0  0  0
   -7.2014    2.7592    0.1664 C   0  0  0  0  0  0  0  0  0  0  0  0
   -8.3474    2.5306    0.9024 C   0  0  0  0  0  0  0  0  0  0  0  0
   -9.1763    1.4921    0.5319 C   0  0  0  0  0  0  0  0  0  0  0  0
   -8.8754    0.6971   -0.5454 C   0  0  0  0  0  0  0  0  0  0  0  0
   -7.7222    0.9117   -1.3019 C   0  0  0  0  0  0  0  0  0  0  0  0
   -2.1327    1.0034    0.3950 C   0  0  0  0  0  0  0  0  0  0  0  0
   -0.8222    0.3132    0.0968 C   0  0  0  0  0  0  0  0  0  0  0  0
   -0.7234   -0.9218    0.9616 C   0  0  0  0  0  0  0  0  0  0  0  0
   -0.7717   -0.4243    2.4122 C   0  0  0  0  0  0  0  0  0  0  0  0
    0.4149    0.5049    2.5860 C   0  0  0  0  0  0  0  0  0  0  0  0
    1.6579   -0.3323    2.2984 C   0  0  0  0  0  0  0  0  0  0  0  0
    1.5983   -0.8272    0.9989 F   0  0  0  0  0  0  0  0  0  0  0  0
    1.7681   -1.4376    3.3064 C   0  0  0  0  0  0  0  0  0  0  0  0
    2.9713   -2.2500    3.0300 C   0  0  0  0  0  0  0  0  0  0  0  0
    3.7592   -1.9557    2.0211 C   0  0  0  0  0  0  0  0  0  0  0  0
    4.9823   -2.7797    1.7383 C   0  0  0  0  0  0  0  0  0  0  0  0
    4.8998   -3.1271    0.2452 C   0  0  0  0  0  0  0  0  0  0  0  0
    4.8761   -1.8673   -0.5763 C   0  0  0  0  0  0  0  0  0  0  0  0
    6.0546   -1.7842   -1.4844 C   0  0  0  0  0  0  0  0  0  0  0  0
    6.4204   -0.3834   -1.7726 C   0  0  0  0  0  0  0  0  0  0  0  0
    5.9926    0.1971   -2.9073 C   0  0  0  0  0  0  0  0  0  0  0  0
    6.1448   -1.7992    1.8487 C   0  0  0  0  0  0  0  0  0  0  0  0
    6.3464   -1.0036    0.9140 C   0  0  0  0  0  0  0  0  0  0  0  0
    7.1894    0.0319    0.4965 C   0  0  0  0  0  0  0  0  0  0  0  0
    7.2431    0.3578   -0.8295 C   0  0  0  0  0  0  0  0  0  0  0  0
    8.1221    1.4401   -1.2445 C   0  0  0  0  0  0  0  0  0  0  0  0
    7.3028    2.5385   -1.9090 C   0  0  0  0  0  0  0  0  0  0  0  0
    8.2189    3.6589   -2.3378 C   0  0  0  0  0  0  0  0  0  0  0  0
  1  2  2  0
  2  3  1  0
  3  4  1  0
  3  5  1  0
  5  6  1  0
  6  7  2  0
  6  8  1  0
  8  9  1  0
  8 10  2  3
 10 11  1  0
 11 12  2  0
 12 13  1  0
 13 14  2  0
 14 15  1  0
 15 16  2  0
  5 17  1  0
 17 18  1  0
 18 19  1  0
 19 20  1  0
 20 21  1  0
 21 22  1  0
 22 23  1  0
 22 24  1  0
 24 25  1  0
 25 26  2  3
 26 27  1  0
 27 28  1  0
 28 29  1  0
 29 30  1  0
 30 31  1  0
 31 32  2  0
 27 33  1  0
 33 34  2  3
 34 35  1  0
 35 36  2  3
 36 37  1  0
 37 38  1  0
 38 39  1  0
 16 11  1  0
 36 31  1  0
M  END
$$$$
