
     RDKit          3D

 72 80  0  0  0  0  0  0  0  0999 V2000
   10.6734    0.2439    1.1274 N   0  0  0  0  0  3  0  0  0  0  0  0
   11.3813    0.9622    0.2074 O   0  0  0  0  0  1  0  0  0  0  0  0
   10.9207   -1.1287    0.9742 N   0  0  0  0  0  3  0  0  0  0  0  0
   10.4969   -1.8357    2.0560 O   0  0  0  0  0  1  0  0  0  0  0  0
    9.9144   -1.1534    0.0023 N   0  0  0  0  0  4  0  0  0  0  0  0
    9.0237   -2.2729    0.0521 C   0  0  0  0  0  0  0  0  0  0  0  0
   10.3862   -0.9151   -1.3443 C   0  0  0  0  0  0  0  0  0  0  0  0
    9.3881    0.0061    0.6279 N   0  0  0  0  0  3  0  0  0  0  0  0
    9.0016    0.9427   -0.4097 C   0  0  0  0  0  0  0  0  0  0  0  0
    7.9796    0.3268   -1.2731 C   0  0  0  0  0  0  0  0  0  0  0  0
    6.7546    0.8067   -1.4577 C   0  0  0  0  0  0  0  0  0  0  0  0
    6.2997    1.9982   -0.8192 N   0  0  0  0  0  4  0  0  0  0  0  0
    6.7845    2.0302    0.4848 N   0  0  0  0  0  2  0  0  0  0  0  0
    6.6918    3.3105    1.0488 N   0  0  0  0  0  1  0  0  0  0  0  0
    6.8618    3.0688   -1.5276 N   0  0  0  0  0  1  0  0  0  0  0  0
    4.8639    2.1391   -0.9002 C   0  0  0  0  0  0  0  0  0  0  0  0
    4.1933    1.3870    0.2206 C   0  0  0  0  0  0  0  0  0  0  0  0
    4.9991    0.7100    1.1123 C   0  0  0  0  0  0  0  0  0  0  0  0
    4.4651    0.0035    2.1563 C   0  0  0  0  0  0  0  0  0  0  0  0
    3.0818   -0.0034    2.2805 C   0  0  0  0  0  0  0  0  0  0  0  0
    2.5838   -0.7135    3.3260 F   0  0  0  0  0  0  0  0  0  0  0  0
    2.2749    0.6714    1.3921 C   0  0  0  0  0  0  0  0  0  0  0  0
    2.8215    1.3786    0.3459 C   0  0  0  0  0  0  0  0  0  0  0  0
    2.0189    2.0871   -0.5913 N   0  0  0  0  0  4  0  0  0  0  0  0
    2.5008    1.9157   -1.8910 N   0  0  0  0  0  1  0  0  0  0  0  0
    2.1111    3.4968   -0.2552 C   0  0  0  0  0  0  0  0  0  0  0  0
    0.6374    1.6200   -0.5664 C   0  0  0  0  0  0  0  0  0  0  0  0
    0.6790    0.1555   -0.3000 C   0  0  0  0  0  0  0  0  0  0  0  0
    1.4304   -0.5105   -1.3602 N   0  0  0  0  0  3  0  0  0  0  0  0
    1.6256   -1.8028   -1.1008 O   0  0  0  0  0  1  0  0  0  0  0  0
    0.9366   -0.2606   -2.6404 N   0  0  0  0  0  2  0  0  0  0  0  0
    0.7714   -1.4938   -3.4355 C   0  0  0  0  0  0  0  0  0  0  0  0
   -0.5346   -2.1574   -2.9357 C   0  0  0  0  0  0  0  0  0  0  0  0
   -1.2224   -1.9656   -1.8146 C   0  0  0  0  0  0  0  0  0  0  0  0
   -1.5368   -3.2128   -1.2094 N   0  0  0  0  0  4  0  0  0  0  0  0
   -0.4632   -4.1200   -1.5377 N   0  0  0  0  0  1  0  0  0  0  0  0
   -2.6771   -3.8853   -1.7521 C   0  0  0  0  0  0  0  0  0  0  0  0
   -1.4453   -3.1540    0.2248 C   0  0  0  0  0  0  0  0  0  0  0  0
   -2.5790   -3.1977    1.0916 C   0  0  0  0  0  0  0  0  0  0  0  0
   -2.8145   -2.0260    1.9884 N   0  0  0  0  0  3  0  0  0  0  0  0
   -1.7000   -1.2075    2.0469 C   0  0  0  0  0  0  0  0  0  0  0  0
   -0.8638   -0.7044    1.0520 C   0  0  0  0  0  0  0  0  0  0  0  0
   -0.6927   -0.4505   -0.1709 C   0  0  0  0  0  0  0  0  0  0  0  0
   -1.5173   -0.7103   -1.2500 N   0  0  0  0  0  3  0  0  0  0  0  0
   -2.5934    0.0856   -1.6763 C   0  0  0  0  0  0  0  0  0  0  0  0
   -3.6942    0.0482   -0.6488 C   0  0  0  0  0  0  0  0  0  0  0  0
   -3.0192    0.0372    0.5357 C   0  0  0  0  0  0  0  0  0  0  0  0
   -3.7291   -0.0279    1.7010 N   0  0  0  0  0  3  0  0  0  0  0  0
   -3.1864    0.3306    2.8247 O   0  0  0  0  0  1  0  0  0  0  0  0
   -4.0648   -1.4939    1.7506 N   0  0  0  0  0  4  0  0  0  0  0  0
   -4.3149   -1.9071    0.4358 C   0  0  0  0  0  0  0  0  0  0  0  0
   -5.2863   -2.6145   -0.1786 C   0  0  0  0  0  0  0  0  0  0  0  0
   -6.1616   -1.9891   -0.9510 C   0  0  0  0  0  0  0  0  0  0  0  0
   -6.0126   -0.5914   -1.0756 N   0  0  0  0  0  4  0  0  0  0  0  0
   -6.1655   -0.2727   -2.3959 O   0  0  0  0  0  1  0  0  0  0  0  0
   -5.0100    0.0667   -0.5431 N   0  0  0  0  0  3  0  0  0  0  0  0
   -5.4623    1.0724    0.4189 C   0  0  0  0  0  0  0  0  0  0  0  0
   -5.8218    0.7237    1.7188 C   0  0  0  0  0  0  0  0  0  0  0  0
   -5.7690   -0.1857    2.5977 C   0  0  0  0  0  0  0  0  0  0  0  0
   -5.1534   -1.5002    2.5040 N   0  0  0  0  0  3  0  0  0  0  0  0
   -6.2379   -2.3276    1.9835 C   0  0  0  0  0  0  0  0  0  0  0  0
   -7.4309   -1.6928    1.5182 C   0  0  0  0  0  0  0  0  0  0  0  0
   -7.6685   -0.8817    0.6040 C   0  0  0  0  0  0  0  0  0  0  0  0
   -7.2081   -0.1273   -0.4142 N   0  0  0  0  0  3  0  0  0  0  0  0
   -8.1843    0.3280   -1.3834 C   0  0  0  0  0  0  0  0  0  0  0  0
   -7.9308    1.8134   -1.5493 C   0  0  0  0  0  0  0  0  0  0  0  0
   -7.8004    2.4757   -0.4314 C   0  0  0  0  0  0  0  0  0  0  0  0
   -7.5616    3.8385   -0.2340 N   0  0  0  0  0  2  0  0  0  0  0  0
   -6.5471    4.0942    0.6523 O   0  0  0  0  0  0  0  0  0  0  0  0
   -5.2721    3.6118    0.6178 C   0  0  0  0  0  0  0  0  0  0  0  0
   -4.3136    4.3571    1.0431 O   0  0  0  0  0  0  0  0  0  0  0  0
   -4.9067    2.3503    0.1502 N   0  0  0  0  0  0  0  0  0  0  0  0
  1  2  1  0
  1  3  1  0
  3  4  1  0
  3  5  1  0
  5  6  1  0
  5  7  1  0
  5  8  1  0
  8  9  1  0
  9 10  1  0
 10 11  2  3
 11 12  1  0
 12 13  1  0
 13 14  1  0
 12 15  1  0
 12 16  1  0
 16 17  1  0
 17 18  2  0
 18 19  1  0
 19 20  2  0
 20 21  1  0
 20 22  1  0
 22 23  2  0
 23 24  1  0
 24 25  1  0
 24 26  1  0
 24 27  1  0
 27 28  1  0
 28 29  1  0
 29 30  1  0
 29 31  1  0
 31 32  1  0
 32 33  1  0
 33 34  2  3
 34 35  1  0
 35 36  1  0
 35 37  1  0
 35 38  1  0
 38 39  1  0
 39 40  1  0
 40 41  1  0
 41 42  1  0
 42 43  2  3
 43 44  1  0
 44 45  1  0
 45 46  1  0
 46 47  2  3
 47 48  1  0
 48 49  1  0
 48 50  1  0
 50 51  1  0
 51 52  1  0
 52 53  2  3
 53 54  1  0
 54 55  1  0
 54 56  1  0
 56 57  1  0
 57 58  1  0
 58 59  2  3
 59 60  1  0
 60 61  1  0
 61 62  1  0
 62 63  2  3
 63 64  1  0
 64 65  1  0
 65 66  1  0
 66 67  2  3
 67 68  1  0
 68 69  1  0
 69 70  1  0
 70 71  2  0
 70 72  1  0
  8  1  1  0
 23 17  1  0
 43 28  1  0
 44 34  1  0
 50 40  1  0
 56 46  1  0
 60 50  1  0
 64 54  1  0
 72 57  1  0
M  CHG  8   1   1   2  -1   3   1   4  -1   5   1   8   1  12   1  13   1
M  RAD  8   1   2   3   2   8   2  13   3  14   2  15   2  25   2  29   2
M  CHG  8  14   1  15   1  24   1  25   1  29   1  30  -1  31   1  35   1
M  CHG  8  36   1  40   1  44   1  48   1  49  -1  50   1  54   1  55  -1
M  RAD  8  31   3  36   2  40   2  44   2  48   2  56   2  60   2  64   2
M  CHG  4  56   1  60   1  64   1  68   1
M  RAD  1  68   3
M  END
$$$$
