
     RDKit          3D

 29 30  0  0  0  0  0  0  0  0999 V2000
    1.6461   -1.1855   -1.0472 C   0  0  0  0  0  0  0  0  0  0  0  0
    2.3483   -1.9912    0.0204 C   0  0  0  0  0  0  0  0  0  0  0  0
    1.5143   -3.1474    0.5162 C   0  0  0  0  0  0  0  0  0  0  0  0
    3.6473   -2.4974   -0.5887 C   0  0  0  0  0  0  0  0  0  0  0  0
    4.6686   -1.3984   -0.4848 C   0  0  0  0  0  0  0  0  0  0  0  0
    4.3795   -0.5494    0.7200 C   0  0  0  0  0  0  0  0  0  0  0  0
    5.1783    0.7393    0.6788 C   0  0  1  0  0  0  0  0  0  0  0  0
    6.1894    0.7354   -0.4394 C   0  0  0  0  0  0  0  0  0  0  0  0
    4.2436    1.9196    0.4558 C   0  0  0  0  0  3  0  0  0  0  0  0
    2.9869    1.3543   -0.1841 C   0  0  0  0  0  0  0  0  0  0  0  0
    2.1145    2.4371   -0.7537 C   0  0  0  0  0  0  0  0  0  0  0  0
    0.6949    1.8840   -0.8067 C   0  0  2  0  0  0  0  0  0  0  0  0
   -0.2204    3.0528   -0.4575 C   0  0  0  0  0  0  0  0  0  0  0  0
    0.5505    0.7350    0.1305 C   0  0  1  0  0  0  0  0  0  0  0  0
   -0.3533    0.9617    1.2813 C   0  0  0  0  0  0  0  0  0  0  0  0
   -1.8034    1.1008    0.9098 C   0  0  0  0  0  0  0  0  0  0  0  0
   -2.4077    2.4032    1.3998 C   0  0  0  0  0  0  0  0  0  0  0  0
   -2.0788    0.8407   -0.5337 C   0  0  0  0  0  0  0  0  0  0  0  0
   -3.2832    1.5913   -1.0505 C   0  0  0  0  0  0  0  0  0  0  0  0
   -4.3868    1.5424   -0.0424 C   0  0  0  0  0  0  0  0  0  0  0  0
   -5.4000    2.4392   -0.3034 O   0  0  0  0  0  0  0  0  0  0  0  0
   -5.0243   -0.1495    0.2035 S   0  0  0  0  0  0  0  0  0  0  0  0
   -3.7143   -1.0875    1.0331 C   0  0  0  0  0  0  0  0  0  0  0  0
   -3.5878   -2.4818    0.5223 C   0  0  0  0  0  0  0  0  0  0  0  0
   -3.0236   -2.6004   -0.8492 C   0  0  0  0  0  0  0  0  0  0  0  0
   -3.5709   -1.7619   -1.7835 O   0  0  0  0  0  0  0  0  0  0  0  0
   -1.2392   -2.7282   -0.9116 S   0  0  0  0  0  0  0  0  0  0  0  0
   -0.4228   -1.5779    0.2378 C   0  0  0  0  0  0  0  0  0  0  0  0
    0.3541   -0.5802   -0.5650 C   0  0  0  0  0  0  0  0  0  0  0  0
  1  2  1  0
  2  3  1  0
  2  4  1  0
  4  5  1  0
  5  6  1  0
  6  7  1  0
  7  8  1  6
  7  9  1  0
  9 10  1  0
 10 11  1  0
 11 12  1  0
 12 13  1  1
 12 14  1  0
 14 15  1  1
 15 16  1  0
 16 17  1  0
 16 18  1  0
 18 19  1  0
 19 20  1  0
 20 21  1  0
 20 22  1  0
 22 23  1  0
 23 24  1  0
 24 25  1  0
 25 26  1  0
 25 27  1  0
 27 28  1  0
 28 29  1  0
 29  1  1  0
 29 14  1  0
M  RAD  1   9   2
M  END
$$$$
