
     RDKit          3D

 31 32  0  0  0  0  0  0  0  0999 V2000
   -6.5292    2.0751    0.1636 C   0  0  0  0  0  0  0  0  0  0  0  0
   -6.2786    1.4606    1.5272 C   0  0  0  0  0  0  0  0  0  0  0  0
   -5.5127    2.4130    2.4246 C   0  0  0  0  0  0  0  0  0  0  0  0
   -5.5910    0.1147    1.3890 C   0  0  0  0  0  3  0  0  0  0  0  0
   -4.2968    0.2228    0.7031 C   0  0  0  0  0  0  0  0  0  0  0  0
   -3.3448    0.7934    1.3016 O   0  0  0  0  0  0  0  0  0  0  0  0
   -4.0615   -0.2869   -0.6123 N   0  0  0  0  0  0  0  0  0  0  0  0
   -5.3288   -1.0924   -1.4804 S   0  0  0  0  0  0  0  0  0  0  0  0
   -5.5837   -0.2409   -3.0257 C   0  0  0  0  0  0  0  0  0  0  0  0
   -4.9837   -2.5086   -1.7884 O   0  0  0  0  0  0  0  0  0  0  0  0
   -6.6173   -1.0501   -0.7304 O   0  0  0  0  0  0  0  0  0  0  0  0
   -2.7836   -0.1469   -1.2654 C   0  0  0  0  0  3  0  0  0  0  0  0
   -1.9981   -1.4197   -1.0608 C   0  0  0  0  0  0  0  0  0  0  0  0
   -1.1650   -1.3029    0.2047 C   0  0  0  0  0  0  0  0  0  0  0  0
   -0.4033   -2.5501    0.3575 N   0  0  0  0  0  0  0  0  0  0  0  0
    0.4691   -2.7160    1.4168 N   0  0  0  0  0  0  0  0  0  0  0  0
    1.7334   -2.6582    1.2195 C   0  0  0  0  0  0  0  0  0  0  0  0
    2.2294   -2.4256   -0.0772 O   0  0  0  0  0  0  0  0  0  0  0  0
    1.4672   -1.5829   -0.8579 C   0  0  0  0  0  0  0  0  0  0  0  0
    1.9129   -0.4650   -1.2995 C   0  0  0  0  0  0  0  0  0  0  0  0
    3.2343    0.0932   -1.0729 C   0  0  0  0  0  0  0  0  0  0  0  0
    3.5425    1.2915   -1.6112 C   0  0  0  0  0  0  0  0  0  0  0  0
    4.8397    1.8642   -1.4009 N   0  0  0  0  0  0  0  0  0  0  0  0
    4.9925    2.5215   -0.3314 C   0  0  0  0  0  0  0  0  0  0  0  0
    6.1584    3.2152    0.1804 C   0  0  0  0  0  0  0  0  0  0  0  0
    7.0640    2.4526    0.9576 N   0  0  0  0  0  0  0  0  0  0  0  0
    6.6628    1.1274    1.3196 C   0  0  0  0  0  0  0  0  0  0  0  0
    5.8332    0.9243    2.5580 C   0  0  0  0  0  0  0  0  0  0  0  0
    5.2306    0.8678    1.2038 C   0  0  0  0  0  0  0  0  0  0  0  0
    4.9460   -0.3609    0.5676 N   0  0  0  0  0  0  0  0  0  0  0  0
    4.1619   -0.6300   -0.3164 N   0  0  0  0  0  0  0  0  0  0  0  0
  1  2  1  0
  2  3  1  0
  2  4  1  0
  4  5  1  0
  5  6  2  0
  5  7  1  0
  7  8  1  0
  8  9  1  0
  8 10  2  0
  8 11  2  0
  7 12  1  0
 12 13  1  0
 13 14  1  0
 14 15  1  0
 15 16  1  0
 16 17  2  3
 17 18  1  0
 18 19  1  0
 19 20  2  3
 20 21  1  0
 21 22  2  3
 22 23  1  0
 23 24  2  3
 24 25  1  0
 25 26  1  0
 26 27  1  0
 27 28  1  0
 28 29  1  0
 29 30  1  0
 30 31  2  3
 31 21  1  0
 29 27  1  0
M  RAD  2   4   2  12   2
M  END
$$$$
