
     RDKit          2D

 36 38  0  0  0  0  0  0  0  0999 V2000
   10.4429   -1.2990    0.0000 C   0  0  0  0  0  0  0  0  0  0  0  0
    8.9429   -1.2990    0.0000 C   0  0  0  0  0  0  0  0  0  0  0  0
    8.1929   -0.0000    0.0000 C   0  0  0  0  0  0  0  0  0  0  0  0
    8.9429    1.2990    0.0000 O   0  0  0  0  0  0  0  0  0  0  0  0
    6.6929   -0.0000    0.0000 O   0  0  0  0  0  0  0  0  0  0  0  0
    5.9429    1.2990    0.0000 C   0  0  0  0  0  0  0  0  0  0  0  0
    4.4429    1.2990    0.0000 C   0  0  0  0  0  0  0  0  0  0  0  0
    3.6929    0.0000    0.0000 C   0  0  0  0  0  0  0  0  0  0  0  0
    4.4429   -1.2990    0.0000 C   0  0  0  0  0  0  0  0  0  0  0  0
    2.1929    0.0000    0.0000 C   0  0  0  0  0  0  0  0  0  0  0  0
    1.6798    1.4095    0.0000 C   0  0  0  0  0  0  0  0  0  0  0  0
    0.3808    2.1595    0.0000 C   0  0  0  0  0  0  0  0  0  0  0  0
   -1.0964    1.8991    0.0000 C   0  0  0  0  0  3  0  0  0  0  0  0
   -2.0606    0.7500    0.0000 C   0  0  0  0  0  0  0  0  0  0  0  0
   -2.5736   -0.6595    0.0000 C   0  0  0  0  0  0  0  0  0  0  0  0
   -2.0606   -2.0691    0.0000 C   0  0  0  0  0  0  0  0  0  0  0  0
   -0.5834   -1.8086    0.0000 C   0  0  0  0  0  0  0  0  0  0  0  0
    0.7156   -2.5586    0.0000 C   0  0  0  0  0  0  0  0  0  0  0  0
    0.1094   -3.7086    0.0000 C   0  0  0  0  0  0  0  0  0  0  0  0
    2.0147   -4.8086    0.0000 O   0  0  0  0  0  0  0  0  0  0  0  0
   -0.5834   -4.1086    0.0000 C   0  0  0  0  0  0  0  0  0  0  0  0
   -1.2762   -3.7086    0.0000 C   0  0  0  0  0  0  0  0  0  0  0  0
   -3.1815   -4.8086    0.0000 O   0  0  0  0  0  0  0  0  0  0  0  0
   -1.2762   -2.9086    0.0000 C   0  0  0  0  0  0  0  0  0  0  0  0
   -3.1815   -1.8086    0.0000 C   0  0  0  0  0  0  0  0  0  0  0  0
   -1.4049    0.1894    0.0000 C   0  0  0  0  0  0  0  0  0  0  0  0
   -0.3964   -0.6866    0.0000 C   0  0  0  0  0  0  0  0  0  0  0  0
    0.8665   -1.1219    0.0000 C   0  0  0  0  0  0  0  0  0  0  0  0
    1.6798   -1.4095    0.0000 C   0  0  0  0  0  0  0  0  0  0  0  0
    2.8289   -2.3737    0.0000 C   0  0  0  0  0  0  0  0  0  0  0  0
    6.6929    2.5981    0.0000 C   0  0  0  0  0  3  0  0  0  0  0  0
    8.1929    2.5981    0.0000 C   0  0  0  0  0  0  0  0  0  0  0  0
    8.9429    3.8971    0.0000 C   0  0  0  0  0  0  0  0  0  0  0  0
   10.4429    3.8971    0.0000 C   0  0  0  0  0  0  0  0  0  0  0  0
   11.1929    5.1962    0.0000 C   0  0  0  0  0  0  0  0  0  0  0  0
   11.9429    6.4952    0.0000 N   0  0  0  0  0  0  0  0  0  0  0  0
  1  2  2  0
  2  3  1  0
  3  4  2  0
  3  5  1  0
  5  6  1  0
  6  7  1  1
  7  8  1  0
  8  9  1  1
  8 10  1  0
 10 11  1  6
 11 12  1  0
 12 13  1  0
 13 14  1  0
 14 15  2  0
 15 16  1  0
 16 17  2  0
 17 18  1  0
 18 19  1  0
 19 20  1  1
 19 21  1  0
 21 22  1  0
 22 23  1  6
 22 24  1  0
 24 25  2  0
 14 26  1  0
 26 27  1  0
 27 28  1  0
 28 29  1  0
 29 30  1  1
  6 31  1  0
 31 32  1  0
 32 33  1  0
 33 34  1  0
 34 35  1  0
 35 36  3  0
 29 10  1  0
 24 17  1  0
 29 18  1  0
M  RAD  2  13   2  31   2
M  END
$$$$
