
     RDKit          3D

 21 20  0  0  0  0  0  0  0  0999 V2000
   -4.0057    3.4164    0.5097 O   0  0  0  0  0  0  0  0  0  0  0  0
   -2.6147    3.3463    0.4651 C   0  0  0  0  0  0  0  0  0  0  0  0
   -2.2205    2.2990   -0.5585 C   0  0  0  0  0  3  0  0  0  0  0  0
   -2.0822    1.0065    0.0672 N   0  0  0  0  0  0  0  0  0  0  0  0
   -2.8879   -0.0229   -0.5539 C   0  0  2  0  0  0  0  0  0  0  0  0
   -4.3402    0.3378   -0.3991 C   0  0  0  0  0  0  0  0  0  0  0  0
   -4.7756    0.4497    0.8984 O   0  0  0  0  0  0  0  0  0  0  0  0
   -2.6438   -1.3648    0.0487 C   0  0  1  0  0  0  0  0  0  0  0  0
   -3.4990   -2.2781   -0.6152 O   0  0  0  0  0  0  0  0  0  0  0  0
   -1.2658   -1.8833   -0.1551 C   0  0  2  0  0  0  0  0  0  0  0  0
   -1.1557   -3.1455    0.4004 O   0  0  0  0  0  0  0  0  0  0  0  0
   -0.1483   -1.0257    0.3107 C   0  0  0  0  0  3  0  0  0  0  0  0
    1.1368   -1.7995   -0.0031 C   0  0  1  0  0  0  0  0  0  0  0  0
    1.1586   -2.1112   -1.3677 O   0  0  0  0  0  0  0  0  0  0  0  0
    2.2730   -1.0680    0.3582 O   0  0  0  0  0  0  0  0  0  0  0  0
    3.3563   -1.7452    0.0731 O   0  0  0  0  0  0  0  0  0  0  0  0
    4.4034   -1.0285    0.3370 O   0  0  0  0  0  0  0  0  0  0  0  0
    4.1809    0.3094    0.0254 C   0  0  0  0  0  0  0  0  0  0  0  0
    5.3682    1.0074    0.3432 O   0  0  0  0  0  0  0  0  0  0  0  0
    5.3946    2.3743    0.1177 C   0  0  0  0  0  0  0  0  0  0  0  0
    4.3675    2.9259   -0.3529 O   0  0  0  0  0  0  0  0  0  0  0  0
  1  2  1  0
  2  3  1  0
  3  4  1  0
  4  5  1  0
  5  6  1  1
  6  7  1  0
  5  8  1  0
  8  9  1  6
  8 10  1  0
 10 11  1  1
 10 12  1  0
 12 13  1  0
 13 14  1  6
 13 15  1  0
 15 16  1  0
 16 17  1  0
 17 18  1  0
 18 19  1  0
 19 20  1  0
 20 21  2  0
M  RAD  2   3   2  12   2
M  END
$$$$
