
     RDKit          3D

 18 18  0  0  0  0  0  0  0  0999 V2000
   -3.9036    2.0168    1.0109 C   0  0  0  0  0  0  0  0  0  0  0  0
   -3.3243    2.4068   -0.3511 N   0  0  0  0  0  0  0  0  0  0  0  0
   -2.8448    1.2487    0.3507 C   0  0  2  0  0  0  0  0  0  0  0  0
   -3.1608   -0.1350   -0.1527 C   0  0  0  0  0  0  0  0  0  0  0  0
   -1.9402   -0.7173   -0.7822 C   0  0  0  0  0  0  0  0  0  0  0  0
   -2.0930   -1.9839   -1.2850 O   0  0  0  0  0  0  0  0  0  0  0  0
   -0.6933   -0.5234    0.0363 C   0  0  1  0  0  0  0  0  0  0  0  0
   -0.7783   -1.4417    1.2340 C   0  0  0  0  0  0  0  0  0  0  0  0
   -0.8029   -2.8268    0.8629 N   0  0  0  0  0  0  0  0  0  0  0  0
   -0.1035   -3.1922   -0.0482 O   0  0  0  0  0  0  0  0  0  0  0  0
    0.4658   -0.7736   -0.7009 O   0  0  0  0  0  0  0  0  0  0  0  0
    1.6843   -0.6379   -0.0884 N   0  0  0  0  0  0  0  0  0  0  0  0
    2.0850    0.4803    0.4287 C   0  0  0  0  0  0  0  0  0  0  0  0
    3.3562    0.5070    1.0340 N   0  0  0  0  0  0  0  0  0  0  0  0
    4.4737    0.5554    0.4038 C   0  0  0  0  0  0  0  0  0  0  0  0
    4.4516    0.5836   -0.9446 F   0  0  0  0  0  0  0  0  0  0  0  0
    1.2431    1.7064    0.3935 C   0  0  0  0  0  0  0  0  0  0  0  0
    1.8849    2.7267   -0.2838 F   0  0  0  0  0  0  0  0  0  0  0  0
  1  2  1  0
  2  3  1  0
  3  4  1  6
  4  5  1  0
  5  6  1  0
  5  7  1  0
  7  8  1  1
  8  9  1  0
  9 10  2  0
  7 11  1  0
 11 12  1  0
 12 13  2  3
 13 14  1  0
 14 15  2  3
 15 16  1  0
 13 17  1  0
 17 18  1  0
  3  1  1  0
M  END
$$$$
