
     RDKit          3D

 14 13  0  0  0  0  0  0  0  0999 V2000
   -2.7760    1.9201    1.1314 O   0  0  0  0  0  0  0  0  0  0  0  0
   -3.3515    1.1362    0.1337 C   0  0  0  0  0  0  0  0  0  0  0  0
   -2.4493    0.0285   -0.3313 C   0  0  0  0  0  3  0  0  0  0  0  0
   -1.1777    0.0264    0.3644 N   0  0  0  0  0  0  0  0  0  0  0  0
   -0.3428   -0.9454   -0.1874 C   0  0  2  0  0  0  0  0  0  0  0  0
   -0.8812   -2.3536   -0.0427 C   0  0  0  0  0  0  0  0  0  0  0  0
   -1.0565   -2.7038    1.2956 O   0  0  0  0  0  0  0  0  0  0  0  0
    1.1088   -0.9589    0.1006 C   0  0  1  0  0  0  0  0  0  0  0  0
    1.6638   -2.1331   -0.5609 O   0  0  0  0  0  0  0  0  0  0  0  0
    1.7854    0.2006   -0.6972 C   0  0  2  0  0  0  0  0  0  0  0  0
    3.1983   -0.0912   -0.5885 O   0  0  0  0  0  0  0  0  0  0  0  0
    1.5629    1.4556    0.1482 C   0  0  0  0  0  0  0  0  0  0  0  0
    2.4533    2.4658   -0.3132 O   0  0  0  0  0  0  0  0  0  0  0  0
    0.2625    1.9528    0.0269 O   0  0  0  0  0  0  0  0  0  0  0  0
  1  2  1  0
  2  3  1  0
  3  4  1  0
  4  5  1  0
  5  6  1  1
  6  7  1  0
  5  8  1  0
  8  9  1  6
  8 10  1  0
 10 11  1  1
 10 12  1  0
 12 13  1  0
 12 14  1  0
M  RAD  1   3   2
M  END
$$$$
