
     RDKit          3D

 54 61  0  0  0  0  0  0  0  0999 V2000
   10.3620   -0.4806   -1.0765 O   0  0  0  0  0  0  0  0  0  0  0  0
    9.1175   -0.3574   -0.8341 C   0  0  0  0  0  0  0  0  0  0  0  0
    8.2096   -0.6416   -1.9356 C   0  0  0  0  0  0  0  0  0  0  0  0
    8.6497   -1.0528   -3.1642 C   0  0  0  0  0  0  0  0  0  0  0  0
    7.8195   -1.3478   -4.2218 C   0  0  0  0  0  0  0  0  0  0  0  0
    6.4607   -1.2126   -3.9818 C   0  0  0  0  0  0  0  0  0  0  0  0
    6.0156   -0.8081   -2.7680 C   0  0  0  0  0  0  0  0  0  0  0  0
    6.8523   -0.5083   -1.7038 C   0  0  0  0  0  0  0  0  0  0  0  0
    6.2830   -0.0858   -0.5036 N   0  0  0  0  0  0  0  0  0  0  0  0
    5.6068    1.1320   -0.4998 O   0  0  0  0  0  0  0  0  0  0  0  0
    4.8249    1.5123    0.5543 C   0  0  0  0  0  0  0  0  0  0  0  0
    3.6989    2.0730    0.2342 C   0  0  0  0  0  0  0  0  0  0  0  0
    2.2540    1.9254    0.7489 C   0  0  0  0  0  0  0  0  0  0  0  0
    6.3694   -0.8049    0.7034 C   0  0  0  0  0  0  0  0  0  0  0  0
    5.5091   -0.3145    1.8496 C   0  0  0  0  0  0  0  0  0  0  0  0
    5.4412    1.1966    1.9100 C   0  0  0  0  0  0  0  0  0  0  0  0
    6.7047    1.8856    2.0211 C   0  0  0  0  0  0  0  0  0  0  0  0
    7.2404    2.6632    2.6983 C   0  0  0  0  0  0  0  0  0  0  0  0
    7.6999    3.5810    3.6051 C   0  0  0  0  0  0  0  0  0  0  0  0
    8.9701    4.0861    3.4641 C   0  0  0  0  0  0  0  0  0  0  0  0
    9.7384    3.5569    2.3045 C   0  0  0  0  0  0  0  0  0  0  0  0
   10.9363    3.9289    2.0385 C   0  0  0  0  0  0  0  0  0  0  0  0
    4.1328   -0.9281    1.8311 C   0  0  0  0  0  0  0  0  0  0  0  0
    4.1042   -2.0868    2.7779 C   0  0  0  0  0  0  0  0  0  0  0  0
    3.0318    0.0003    2.2322 C   0  0  0  0  0  0  0  0  0  0  0  0
    2.1221    0.6899    1.5235 C   0  0  0  0  0  0  0  0  0  0  0  0
    0.8148    0.1330    1.5345 C   0  0  0  0  0  0  0  0  0  0  0  0
   -0.2552    0.5670    0.9203 C   0  0  0  0  0  0  0  0  0  0  0  0
   -0.2660    1.7852    0.0691 C   0  0  0  0  0  0  0  0  0  0  0  0
   -1.4897    2.0020   -0.5387 C   0  0  0  0  0  0  0  0  0  0  0  0
   -2.5189    1.1131   -0.2914 C   0  0  0  0  0  0  0  0  0  0  0  0
   -3.6045    0.7329   -0.4948 C   0  0  0  0  0  0  0  0  0  0  0  0
   -4.6764    1.1458   -1.3586 C   0  0  0  0  0  0  0  0  0  0  0  0
   -5.7854    0.2198   -1.5358 C   0  0  0  0  0  0  0  0  0  0  0  0
   -7.0992    0.7993   -2.8060 C   0  0  0  0  0  0  0  0  0  0  0  0
   -6.8164    1.8755   -3.2993 C   0  0  0  0  0  0  0  0  0  0  0  0
   -5.7747    2.5564   -2.9873 C   0  0  0  0  0  0  0  0  0  0  0  0
   -5.2315    1.8214   -2.1585 C   0  0  0  0  0  0  0  0  0  0  0  0
   -6.0743    0.3839   -1.8395 C   0  0  0  0  0  0  0  0  0  0  0  0
   -7.3338   -0.1011   -2.3919 C   0  0  0  0  0  0  0  0  0  0  0  0
   -7.7247   -1.3641   -1.8657 C   0  0  0  0  0  0  0  0  0  0  0  0
   -7.0558   -2.6465   -2.0023 O   0  0  0  0  0  0  0  0  0  0  0  0
   -5.7504   -2.4588   -1.0961 C   0  0  0  0  0  0  0  0  0  0  0  0
   -5.9974   -0.8733   -0.7116 C   0  0  0  0  0  0  0  0  0  0  0  0
   -6.1757   -2.0793    0.0785 C   0  0  0  0  0  0  0  0  0  0  0  0
   -6.6698   -2.5665    1.3069 C   0  0  0  0  0  0  0  0  0  0  0  0
   -7.3579   -2.1183    2.2896 C   0  0  0  0  0  0  0  0  0  0  0  0
   -7.8591   -0.7756    2.3488 O   0  0  0  0  0  0  0  0  0  0  0  0
   -8.9636   -0.5125    3.1960 C   0  0  0  0  0  0  0  0  0  0  0  0
  -10.0393   -1.5094    3.0256 C   0  0  0  0  0  0  0  0  0  0  0  0
  -10.3276   -2.0815    1.8807 C   0  0  0  0  0  0  0  0  0  0  0  0
   -9.8604   -2.0187    0.6284 C   0  0  0  0  0  0  0  0  0  0  0  0
   -9.4963   -2.0714   -0.4987 C   0  0  0  0  0  0  0  0  0  0  0  0
   -8.7659   -1.1418   -1.2098 N   0  0  0  0  0  0  0  0  0  0  0  0
  1  2  2  0
  2  3  1  0
  3  4  2  0
  4  5  1  0
  5  6  2  0
  6  7  1  0
  7  8  2  0
  8  9  1  0
  9 10  1  0
 10 11  1  0
 11 12  2  3
 12 13  1  0
  9 14  1  0
 14 15  1  0
 15 16  1  0
 16 17  1  0
 17 18  2  3
 18 19  1  0
 19 20  2  3
 20 21  1  0
 21 22  2  0
 15 23  1  0
 23 24  1  0
 23 25  1  0
 25 26  2  3
 26 27  1  0
 27 28  2  3
 28 29  1  0
 29 30  2  3
 30 31  1  0
 31 32  2  3
 32 33  1  0
 33 34  1  0
 34 35  2  0
 35 36  1  0
 36 37  2  0
 37 38  1  0
 38 39  1  0
 39 40  2  0
 40 41  1  0
 41 42  1  0
 42 43  1  0
 43 44  1  0
 44 45  2  0
 45 46  1  0
 46 47  2  3
 47 48  1  0
 48 49  1  0
 49 50  1  0
 50 51  2  3
 51 52  1  0
 52 53  2  3
 53 54  1  0
  8  3  1  0
 16 11  1  0
 26 13  1  0
 38 33  2  0
 44 34  1  0
 40 35  1  0
 41 54  2  3
 45 43  1  0
M  END
$$$$
