
     RDKit          3D

  6  5  0  0  0  0  0  0  0  0999 V2000
    2.5164    0.0552    1.4722 F   0  0  0  0  0  0  0  0  0  0  0  0
    1.4164   -0.4710    0.8959 C   0  0  0  0  0  0  0  0  0  0  0  0
    0.6080   -0.1031    0.0064 C   0  0  0  0  0  0  0  0  0  0  0  0
   -0.6028   -0.6575   -0.6471 C   0  0  0  0  0  0  0  0  0  0  0  0
   -1.6721    0.3829   -0.3102 N   0  0  0  0  0  0  0  0  0  0  0  0
   -2.2660    0.7935   -1.4995 F   0  0  0  0  0  0  0  0  0  0  0  0
  1  2  1  0
  2  3  2  3
  3  4  1  0
  4  5  1  0
  5  6  1  0
M  END
$$$$
