
     RDKit          3D

 23 24  0  0  0  0  0  0  0  0999 V2000
    1.3928   -0.1388    1.9876 C   0  0  0  0  0  0  0  0  0  0  0  0
    1.9156    0.5874    0.7416 C   0  0  1  0  0  0  0  0  0  0  0  0
    3.3689    0.9072    0.8881 C   0  0  0  0  0  0  0  0  0  0  0  0
    4.2592   -0.1921    0.3425 C   0  0  2  0  0  0  0  0  0  0  0  0
    5.5786    0.0899    0.5818 O   0  0  0  0  0  0  0  0  0  0  0  0
    3.9347   -0.2428   -1.1571 C   0  0  2  0  0  0  0  0  0  0  0  0
    3.8477    1.1112   -1.5552 O   0  0  0  0  0  0  0  0  0  0  0  0
    2.5462   -0.8146   -1.2570 C   0  0  1  0  0  0  0  0  0  0  0  0
    2.6036   -2.1602   -0.8864 O   0  0  0  0  0  0  0  0  0  0  0  0
    1.5169   -0.1033   -0.4883 C   0  0  1  0  0  0  0  0  0  0  0  0
    0.3353   -1.0222   -0.2550 C   0  0  0  0  0  3  0  0  0  0  0  0
   -0.8817   -0.2792    0.2423 C   0  0  1  0  0  0  0  0  0  0  0  0
   -1.3285    0.7484   -0.7133 C   0  0  0  0  0  0  0  0  0  0  0  0
   -2.7708    0.8660   -0.9628 C   0  0  0  0  0  0  0  0  0  0  0  0
   -3.0776    0.1932   -2.1671 O   0  0  0  0  0  0  0  0  0  0  0  0
   -3.0663    2.2215   -1.2258 O   0  0  0  0  0  0  0  0  0  0  0  0
   -3.6159    0.4232    0.0003 O   0  0  0  0  0  0  0  0  0  0  0  0
   -3.2017    0.6830    1.3018 C   0  0  1  0  0  0  0  0  0  0  0  0
   -4.2728    1.0498    2.1316 O   0  0  0  0  0  0  0  0  0  0  0  0
   -2.6657   -0.6317    1.8371 C   0  0  2  0  0  0  0  0  0  0  0  0
   -1.7360   -0.3568    2.8375 O   0  0  0  0  0  0  0  0  0  0  0  0
   -1.9172   -1.2618    0.6780 C   0  0  1  0  0  0  0  0  0  0  0  0
   -2.7654   -1.6772   -0.3380 O   0  0  0  0  0  0  0  0  0  0  0  0
  2  1  1  1
  2  3  1  0
  3  4  1  0
  4  5  1  6
  4  6  1  0
  6  7  1  1
  6  8  1  0
  8  9  1  1
  8 10  1  0
 10 11  1  1
 12 11  1  6
 12 13  1  0
 13 14  1  0
 14 15  1  0
 14 16  1  0
 14 17  1  0
 17 18  1  0
 18 19  1  1
 18 20  1  0
 20 21  1  1
 20 22  1  0
 22 23  1  6
 10  2  1  0
 22 12  1  0
M  RAD  1  11   2
M  END
$$$$
