
     RDKit          3D

 16 17  0  0  0  0  0  0  0  0999 V2000
   -1.1805    2.5369    0.2311 C   0  0  0  0  0  0  0  0  0  0  0  0
   -1.5263    1.0950    0.4961 C   0  0  1  0  0  0  0  0  0  0  0  0
   -2.6201    0.7126   -0.4976 C   0  0  0  0  0  0  0  0  0  0  0  0
   -3.2738   -0.5353    0.0570 C   0  0  2  0  0  0  0  0  0  0  0  0
   -4.0911   -0.1652    1.1219 O   0  0  0  0  0  0  0  0  0  0  0  0
   -2.1500   -1.4476    0.5153 C   0  0  2  0  0  0  0  0  0  0  0  0
   -1.9297   -1.2231    1.8730 O   0  0  0  0  0  0  0  0  0  0  0  0
   -0.8626   -1.1252   -0.2357 C   0  0  1  0  0  0  0  0  0  0  0  0
   -1.1351   -0.9970   -1.6147 O   0  0  0  0  0  0  0  0  0  0  0  0
   -0.3223    0.1889    0.2950 C   0  0  1  0  0  0  0  0  0  0  0  0
    0.5577    0.8491   -0.6242 N   0  0  0  0  0  0  0  0  0  0  0  0
    1.7651    0.1435   -0.9129 C   0  0  0  0  0  3  0  0  0  0  0  0
    2.7497    0.1949    0.2478 C   0  0  0  0  0  0  0  0  0  0  0  0
    4.0169   -0.5483   -0.0656 C   0  0  0  0  0  3  0  0  0  0  0  0
    4.7953   -0.1820   -1.1134 O   0  0  0  0  0  0  0  0  0  0  0  0
    5.2068   -0.0368    0.2268 O   0  0  0  0  0  0  0  0  0  0  0  0
  2  1  1  6
  2  3  1  0
  3  4  1  0
  4  5  1  1
  4  6  1  0
  6  7  1  1
  6  8  1  0
  8  9  1  6
  8 10  1  0
 10 11  1  6
 11 12  1  0
 12 13  1  0
 13 14  1  0
 14 15  1  0
 14 16  1  0
 10  2  1  0
 16 15  1  0
M  RAD  2  12   2  14   2
M  END
$$$$
