
     RDKit          3D

 47 52  0  0  0  0  0  0  0  0999 V2000
   -3.2085   -3.4413    1.9640 C   0  0  0  0  0  0  0  0  0  0  0  0
   -1.7328   -3.3251    1.7703 C   0  0  0  0  0  0  0  0  0  0  0  0
   -1.1534   -4.3119    0.8112 C   0  0  0  0  0  0  0  0  0  0  0  0
   -1.2358   -1.9303    1.5892 C   0  0  0  0  0  0  0  0  0  0  0  0
    0.0713   -1.8369    0.8742 C   0  0  0  0  0  0  0  0  0  0  0  0
    1.2713   -1.9910    1.7525 C   0  0  0  0  0  0  0  0  0  0  0  0
    1.7551   -0.6946    2.3496 C   0  0  1  0  0  0  0  0  0  0  0  0
    1.3345   -0.6526    3.7912 C   0  0  0  0  0  0  0  0  0  0  0  0
    3.2589   -0.6498    2.1874 C   0  0  0  0  0  3  0  0  0  0  0  0
    3.8754    0.6055    2.7088 C   0  0  0  0  0  0  0  0  0  0  0  0
    4.6079    1.3908    1.6583 C   0  0  0  0  0  0  0  0  0  0  0  0
    3.7576    1.5911    0.4110 C   0  0  0  0  0  3  0  0  0  0  0  0
    4.7814    1.9701   -0.6348 C   0  0  0  0  0  0  0  0  0  0  0  0
    2.9153    2.8432    0.6718 C   0  0  0  0  0  3  0  0  0  0  0  0
    2.0669    3.1070   -0.5278 C   0  0  0  0  0  0  0  0  0  0  0  0
    0.6311    2.7959   -0.2645 C   0  0  0  0  0  0  0  0  0  0  0  0
   -0.1048    2.6658   -1.5539 C   0  0  0  0  0  3  0  0  0  0  0  0
    0.3977    1.6916    0.7073 C   0  0  0  0  0  3  0  0  0  0  0  0
    1.0859    0.4009    0.3456 C   0  0  0  0  0  0  0  0  0  0  0  0
    0.1321   -0.6738   -0.0598 C   0  0  0  0  0  0  0  0  0  0  0  0
    0.5620   -1.1915   -1.4279 C   0  0  0  0  0  0  0  0  0  0  0  0
    1.8584   -0.7735   -1.7457 O   0  0  0  0  0  0  0  0  0  0  0  0
    2.8288   -1.5256   -1.1082 C   0  0  0  0  0  0  0  0  0  0  0  0
    4.1661   -1.2338   -1.7559 C   0  0  2  0  0  0  0  0  0  0  0  0
    4.5413   -2.3759   -2.4670 O   0  0  0  0  0  0  0  0  0  0  0  0
    5.2436   -0.9731   -0.7345 C   0  0  0  0  0  3  0  0  0  0  0  0
    6.2190    0.0928   -1.2069 C   0  0  0  0  0  0  0  0  0  0  0  0
    6.0630    1.2696   -0.2637 C   0  0  0  0  0  0  0  0  0  0  0  0
    5.8277    0.6729    1.1280 C   0  0  0  0  0  3  0  0  0  0  0  0
   -1.2668   -0.0676   -0.1389 C   0  0  0  0  0  3  0  0  0  0  0  0
   -1.3847    0.5982   -1.4835 C   0  0  0  0  0  0  0  0  0  0  0  0
   -1.5068    2.0955   -1.3782 C   0  0  1  0  0  0  0  0  0  0  0  0
   -2.0180    2.5310   -0.0224 C   0  0  0  0  0  0  0  0  0  0  0  0
   -3.3355    3.2460   -0.2359 C   0  0  0  0  0  0  0  0  0  0  0  0
   -3.2028    4.4136   -1.1893 C   0  0  0  0  0  0  0  0  0  0  0  0
   -4.3376    2.2209   -0.7224 C   0  0  2  0  0  0  0  0  0  0  0  0
   -5.2326    2.8136   -1.7914 C   0  0  0  0  0  0  0  0  0  0  0  0
   -5.3624    1.5715    0.6143 S   0  0  0  0  0  0  0  0  0  0  0  0
   -4.8042   -0.0244    1.2128 C   0  0  0  0  0  0  0  0  0  0  0  0
   -5.8702   -1.0670    0.8958 C   0  0  0  0  0  3  0  0  0  0  0  0
   -5.4180   -2.4443    1.3894 C   0  0  0  0  0  0  0  0  0  0  0  0
   -3.9862   -2.6021    1.0060 C   0  0  2  0  0  0  0  0  0  0  0  0
   -3.8225   -3.0243   -0.4366 C   0  0  0  0  0  0  0  0  0  0  0  0
   -2.8479   -2.1181   -1.1055 C   0  0  0  0  0  0  0  0  0  0  0  0
   -3.2814   -0.9980   -1.6710 C   0  0  0  0  0  0  0  0  0  0  0  0
   -2.4337   -0.0246   -2.3578 C   0  0  2  0  0  0  0  0  0  0  0  0
   -1.7055   -0.6367   -3.5552 C   0  0  0  0  0  2  0  0  0  0  0  0
  1  2  1  0
  2  3  1  0
  2  4  1  0
  4  5  1  0
  5  6  1  0
  6  7  1  0
  7  8  1  1
  7  9  1  0
  9 10  1  0
 10 11  1  0
 11 12  1  0
 12 13  1  0
 12 14  1  0
 14 15  1  0
 15 16  1  0
 16 17  1  0
 16 18  1  0
 18 19  1  0
 19 20  1  0
 20 21  1  0
 21 22  1  0
 22 23  1  0
 23 24  1  0
 24 25  1  1
 24 26  1  0
 26 27  1  0
 27 28  1  0
 28 29  1  0
 20 30  1  0
 30 31  1  0
 31 32  1  0
 32 33  1  1
 33 34  1  0
 34 35  1  0
 34 36  1  0
 36 37  1  6
 36 38  1  0
 38 39  1  0
 39 40  1  0
 40 41  1  0
 42 41  1  1
 42 43  1  0
 43 44  1  0
 44 45  2  3
 45 46  1  0
 46 47  1  6
 42  1  1  0
 20  5  1  0
 29 11  1  0
 28 13  1  0
 32 17  1  0
 46 31  1  0
M  RAD  8   9   2  12   2  14   2  17   2  18   2  26   2  29   2  30   2
M  RAD  2  40   2  47   3
M  END
$$$$
