
     RDKit          3D

 22 22  0  0  0  0  0  0  0  0999 V2000
   -0.2720   -0.9627   -0.4829 C   0  0  0  0  0  0  0  0  0  0  0  0
    0.4377   -1.9619   -0.8329 C   0  0  0  0  0  0  0  0  0  0  0  0
    1.6891   -2.5105   -0.4244 C   0  0  0  0  0  0  0  0  0  0  0  0
    1.7018   -3.5451    0.2939 O   0  0  0  0  0  0  0  0  0  0  0  0
    2.8824   -1.8902   -0.8305 N   0  0  0  0  0  0  0  0  0  0  0  0
    3.3465   -0.5991   -0.6725 C   0  0  0  0  0  0  0  0  0  0  0  0
    3.7091   -0.0163    0.4519 C   0  0  0  0  0  0  0  0  0  0  0  0
    4.1942    1.3792    0.5099 C   0  0  0  0  0  0  0  0  0  0  0  0
    5.3953    1.6286   -0.3538 C   0  0  0  0  0  0  0  0  0  0  0  0
    3.0757    2.2181    0.0552 N   0  0  0  0  0  0  0  0  0  0  0  0
    2.4322    1.7871   -1.1366 C   0  0  0  0  0  0  0  0  0  0  0  0
    1.2666    1.2827   -1.0535 N   0  0  0  0  0  0  0  0  0  0  0  0
    0.5972    1.1410    0.1941 C   0  0  0  0  0  0  0  0  0  0  0  0
   -0.1428    0.0724    0.4821 C   0  0  0  0  0  0  0  0  0  0  0  0
   -0.7701    0.0715    1.7844 N   0  0  0  0  0  0  0  0  0  0  0  0
   -1.8495    0.8982    2.1152 C   0  0  0  0  0  0  0  0  0  0  0  0
   -2.8654    1.1694    1.3030 C   0  0  0  0  0  0  0  0  0  0  0  0
   -2.8549    0.5684   -0.0144 C   0  0  0  0  0  0  0  0  0  0  0  0
   -3.9296   -0.0160   -0.4988 C   0  0  0  0  0  0  0  0  0  0  0  0
   -4.9619   -0.7710   -0.7652 C   0  0  0  0  0  0  0  0  0  0  0  0
   -6.1918   -0.4532   -0.1261 N   0  0  0  0  0  0  0  0  0  0  0  0
   -6.8898    0.5094   -0.6319 C   0  0  0  0  0  0  0  0  0  0  0  0
  1  2  2  3
  2  3  1  0
  3  4  2  0
  3  5  1  0
  5  6  1  0
  6  7  2  3
  7  8  1  0
  8  9  1  0
  8 10  1  0
 10 11  1  0
 11 12  2  3
 12 13  1  0
 13 14  2  3
 14 15  1  0
 15 16  1  0
 16 17  2  3
 17 18  1  0
 18 19  2  0
 19 20  2  0
 20 21  1  0
 21 22  2  0
 14  1  1  0
M  END
$$$$
