
     RDKit          3D

 11 10  0  0  0  0  0  0  0  0999 V2000
   -3.9672    1.3558   -0.0462 N   0  0  0  0  0  0  0  0  0  0  0  0
   -3.4886    0.3944    0.6242 C   0  0  0  0  0  0  0  0  0  0  0  0
   -2.7144   -0.6454   -0.1339 C   0  0  0  0  0  2  0  0  0  0  0  0
   -1.4320   -1.0112    0.5843 C   0  0  0  0  0  3  0  0  0  0  0  0
   -0.9137   -2.1832   -0.0576 N   0  0  0  0  0  0  0  0  0  0  0  0
    0.3472   -2.3726   -0.0507 C   0  0  0  0  0  0  0  0  0  0  0  0
    1.3847   -1.1646    0.7587 S   0  0  0  0  0  0  0  0  0  0  0  0
    1.7559    0.0841   -0.4543 N   0  0  0  0  0  0  0  0  0  0  0  0
    1.8435    1.4444   -0.0404 C   0  0  0  0  0  0  0  0  0  0  0  0
    3.0188    1.8744    0.3424 C   0  0  0  0  0  0  0  0  0  0  0  0
    4.1657    2.2241    0.6811 O   0  0  0  0  0  0  0  0  0  0  0  0
  1  2  2  0
  2  3  1  0
  3  4  1  0
  4  5  1  0
  5  6  2  0
  6  7  1  0
  7  8  1  0
  8  9  1  0
  9 10  2  0
 10 11  2  0
M  RAD  2   3   3   4   2
M  END
$$$$
