
     RDKit          3D

 20 20  0  0  0  0  0  0  0  0999 V2000
    6.0655    0.5171    2.1657 N   0  0  0  0  0  3  0  0  0  0  0  0
    6.5892   -0.2398    3.2633 C   0  0  0  0  0  0  0  0  0  0  0  0
    5.0566    0.0549    1.5373 C   0  0  0  0  0  0  0  0  0  0  0  0
    4.4862   -1.2394    1.9811 C   0  0  0  0  0  0  0  0  0  0  0  0
    3.1236   -1.3644    1.4180 C   0  0  0  0  0  0  0  0  0  0  0  0
    2.6243   -0.4124    0.6656 C   0  0  0  0  0  0  0  0  0  0  0  0
    1.2887   -0.4868    0.0873 C   0  0  0  0  0  0  0  0  0  0  0  0
    0.4784   -1.6988    0.3750 C   0  0  0  0  0  0  0  0  0  0  0  0
    0.8577    0.5164   -0.6614 C   0  0  0  0  0  0  0  0  0  0  0  0
   -0.4805    0.3803   -1.2072 N   0  0  0  0  0  4  0  0  0  0  0  0
   -1.3621    1.4964   -1.1943 C   0  0  0  0  0  0  0  0  0  0  0  0
   -0.7891   -0.7626   -1.6764 C   0  0  0  0  0  0  0  0  0  0  0  0
   -2.0846   -1.0424   -2.2504 C   0  0  0  0  0  0  0  0  0  0  0  0
   -2.3580   -2.4016   -2.7732 C   0  0  0  0  0  0  0  0  0  0  0  0
   -2.9741   -0.0732   -2.2860 C   0  0  0  0  0  0  0  0  0  0  0  0
   -2.7076    1.2768   -1.7687 C   0  0  0  0  0  0  0  0  0  0  0  0
   -3.7836    1.6725   -0.7594 C   0  0  0  0  0  0  0  0  0  0  0  0
   -3.5581    0.7800    0.4601 C   0  0  0  0  0  2  0  0  0  0  0  0
   -4.7240    1.0000    1.3875 C   0  0  0  0  0  0  0  0  0  0  0  0
   -5.7485   -0.0264    1.2359 N   0  0  0  0  0  0  0  0  0  0  0  0
  1  2  1  0
  1  3  2  0
  3  4  1  0
  4  5  1  0
  5  6  2  3
  6  7  1  0
  7  8  1  0
  7  9  2  3
  9 10  1  0
 10 11  1  0
 10 12  2  0
 12 13  1  0
 13 14  1  0
 13 15  2  0
 15 16  1  0
 16 17  1  0
 17 18  1  0
 18 19  1  0
 19 20  1  0
 16 11  1  0
M  CHG  2   1   1  10   1
M  RAD  2   1   2  18   3
M  END
$$$$
