
     RDKit          2D

 60 62  0  0  0  0  0  0  0  0999 V2000
   11.4817   -9.8548    0.0000 O   0  0  0  0  0  0  0  0  0  0  0  0
   10.2423  -10.6997    0.0000 C   0  0  0  0  0  0  0  0  0  0  0  0
   10.3544  -12.1955    0.0000 C   0  0  0  0  0  0  0  0  0  0  0  0
   11.7059  -12.8464    0.0000 C   0  0  0  0  0  0  0  0  0  0  0  0
   11.8180  -14.3422    0.0000 C   0  0  0  0  0  0  0  0  0  0  0  0
   13.1694  -14.9930    0.0000 C   0  0  0  0  0  0  0  0  0  0  0  0
   13.2815  -16.4888    0.0000 C   0  0  0  0  0  0  0  0  0  0  0  0
   14.6330  -17.1396    0.0000 N   0  0  0  0  0  0  0  0  0  0  0  0
   15.8723  -16.2947    0.0000 C   0  0  0  0  0  0  0  0  0  0  0  0
   17.2238  -16.9455    0.0000 C   0  0  0  0  0  0  0  0  0  0  0  0
   18.5447  -16.2347    0.0000 C   0  0  0  0  0  0  0  0  0  0  0  0
   19.6289  -17.2713    0.0000 C   0  0  0  0  0  0  0  0  0  0  0  0
   18.9781  -18.6227    0.0000 C   0  0  0  0  0  0  0  0  0  0  0  0
   19.6889  -19.9436    0.0000 Cl  0  0  0  0  0  0  0  0  0  0  0  0
   17.4916  -18.4214    0.0000 C   0  0  0  0  0  0  0  0  0  0  0  0
   15.7602  -14.7989    0.0000 N   0  0  0  0  0  0  0  0  0  0  0  0
   14.4088  -14.1480    0.0000 C   0  0  0  0  0  0  0  0  0  0  0  0
   14.2967  -12.6522    0.0000 C   0  0  0  0  0  0  0  0  0  0  0  0
   15.5361  -11.8072    0.0000 N   0  0  0  0  0  0  0  0  0  0  0  0
    8.8909  -10.0489    0.0000 C   0  0  0  0  0  0  0  0  0  0  0  0
    8.7788   -8.5531    0.0000 C   0  0  0  0  0  0  0  0  0  0  0  0
    7.4273   -7.9023    0.0000 C   0  0  0  0  0  0  0  0  0  0  0  0
    7.3152   -6.4065    0.0000 C   0  0  0  0  0  0  0  0  0  0  0  0
    5.9638   -5.7557    0.0000 C   0  0  0  0  0  0  0  0  0  0  0  0
    4.7244   -6.6006    0.0000 C   0  0  0  0  0  0  0  0  0  0  0  0
    4.8365   -8.0964    0.0000 C   0  0  0  0  0  0  0  0  0  0  0  0
    3.5972   -8.9414    0.0000 C   0  0  0  0  0  0  0  0  0  0  0  0
    3.7093  -10.4372    0.0000 C   0  0  0  0  0  0  0  0  0  0  0  0
    2.4699  -11.2822    0.0000 C   0  0  0  0  0  0  0  0  0  0  0  0
    1.2305  -12.1272    0.0000 C   0  0  0  0  0  0  0  0  0  0  0  0
   -0.0088  -12.9722    0.0000 C   0  0  0  0  0  0  0  0  0  0  0  0
    0.1033  -14.4680    0.0000 C   0  0  0  0  0  0  0  0  0  0  0  0
   -1.1361  -15.3130    0.0000 C   0  0  0  0  0  0  0  0  0  0  0  0
   -1.0240  -16.8088    0.0000 C   0  0  0  0  0  0  0  0  0  0  0  0
   -2.2633  -17.6537    0.0000 C   0  0  0  0  0  0  0  0  0  0  0  0
    5.8517   -4.2598    0.0000 N   0  0  0  0  0  2  0  0  0  0  0  0
    4.5002   -3.6090    0.0000 C   0  0  0  0  0  0  0  0  0  0  0  0
    4.3881   -2.1132    0.0000 C   0  0  0  0  0  0  0  0  0  0  0  0
    3.0367   -1.4624    0.0000 C   0  0  0  0  0  0  0  0  0  0  0  0
    3.3705    0.0000    0.0000 C   0  0  0  0  0  0  0  0  0  0  0  0
    3.0367    1.4624    0.0000 C   0  0  0  0  0  0  0  0  0  0  0  0
    2.1015    2.6351    0.0000 C   0  0  0  0  0  0  0  0  0  0  0  0
    0.7500    3.2860    0.0000 C   0  0  0  0  0  0  0  0  0  0  0  0
   -0.7500    3.2860    0.0000 C   0  0  0  0  0  0  0  0  0  0  0  0
   -2.1015    2.6351    0.0000 C   0  0  0  0  0  0  0  0  0  0  0  0
   -3.0367    1.4624    0.0000 C   0  0  0  0  0  0  0  0  0  0  0  0
   -3.3705    0.0000    0.0000 N   0  0  0  0  0  0  0  0  0  0  0  0
   -3.0367   -1.4624    0.0000 C   0  0  0  0  0  0  0  0  0  0  0  0
   -2.1015   -2.6351    0.0000 C   0  0  0  0  0  0  0  0  0  0  0  0
   -0.7500   -3.2860    0.0000 C   0  0  0  0  0  0  0  0  0  0  0  0
    0.7500   -3.2860    0.0000 C   0  0  0  0  0  0  0  0  0  0  0  0
    2.1015   -2.6351    0.0000 N   0  0  0  0  0  3  0  0  0  0  0  0
    3.0367   -3.8079    0.0000 C   0  0  0  0  0  0  0  0  0  0  0  0
    2.4887   -5.2042    0.0000 C   0  0  0  0  0  0  0  0  0  0  0  0
    3.4239   -6.3769    0.0000 C   0  0  0  0  0  0  0  0  0  0  0  0
    2.8759   -7.7733    0.0000 C   0  0  0  0  0  0  0  0  0  0  0  0
    1.3927   -7.9968    0.0000 C   0  0  0  0  0  0  0  0  0  0  0  0
    0.8446   -9.3931    0.0000 C   0  0  0  0  0  0  0  0  0  0  0  0
   -0.6386   -9.6167    0.0000 C   0  0  0  0  0  0  0  0  0  0  0  0
   -1.1866  -11.0130    0.0000 O   0  0  0  0  0  1  0  0  0  0  0  0
  1  2  2  0
  2  3  1  0
  3  4  1  0
  4  5  2  3
  5  6  1  0
  6  7  2  0
  7  8  1  0
  8  9  1  0
  9 10  1  0
 10 11  2  0
 11 12  1  0
 12 13  2  0
 13 14  1  0
 13 15  1  0
  9 16  2  0
 16 17  1  0
 17 18  2  3
 18 19  1  0
  2 20  1  0
 20 21  1  0
 21 22  1  0
 22 23  1  0
 23 24  1  0
 24 25  1  0
 25 26  1  0
 26 27  2  3
 27 28  1  0
 28 29  2  0
 29 30  2  0
 30 31  2  0
 31 32  1  0
 32 33  2  3
 33 34  1  0
 34 35  2  0
 24 36  1  0
 36 37  1  0
 37 38  2  3
 38 39  1  0
 39 40  2  3
 40 41  1  0
 41 42  2  3
 42 43  1  0
 43 44  2  3
 44 45  1  0
 45 46  2  3
 46 47  1  0
 47 48  1  0
 48 49  2  3
 49 50  1  0
 50 51  2  3
 51 52  1  0
 52 53  1  0
 53 54  1  0
 54 55  2  3
 55 56  1  0
 56 57  1  0
 57 58  2  3
 58 59  1  0
 59 60  1  0
 17  6  1  0
 15 10  1  0
 52 39  1  0
M  CHG  3  36   1  52   1  60  -1
M  RAD  2  36   3  52   2
M  END
$$$$
