
     RDKit          3D

 38 38  0  0  0  0  0  0  0  0999 V2000
   -3.3027    0.9380   -0.1888 C   0  0  0  0  0  0  0  0  0  0  0  0
   -3.8397    2.3003   -0.5142 C   0  0  0  0  0  0  0  0  0  0  0  0
   -5.2632    2.4544   -0.0044 C   0  0  0  0  0  0  0  0  0  0  0  0
   -2.9895    3.3276    0.2218 C   0  0  0  0  0  0  0  0  0  0  0  0
   -1.7094    3.6242   -0.5056 C   0  0  0  0  0  0  0  0  0  0  0  0
   -1.5569    5.1206   -0.7400 C   0  0  0  0  0  0  0  0  0  0  0  0
   -0.3631    5.6096    0.0307 C   0  0  0  0  0  0  0  0  0  0  0  0
   -0.4597    5.1957    1.4756 C   0  0  0  0  0  0  0  0  0  0  0  0
    0.8847    5.0399   -0.5799 C   0  0  0  0  0  3  0  0  0  0  0  0
    1.9608    4.8224    0.4593 C   0  0  0  0  0  3  0  0  0  0  0  0
    2.3951    3.3630    0.4382 C   0  0  0  0  0  0  0  0  0  0  0  0
    3.2817    3.1164   -0.6047 O   0  0  0  0  0  0  0  0  0  0  0  0
    4.5597    3.5943   -0.2871 C   0  0  0  0  0  0  0  0  0  0  0  0
    5.2816    2.4738    0.4501 C   0  0  0  0  0  0  0  0  0  0  0  0
    4.9502    1.1833   -0.2516 C   0  0  0  0  0  0  0  0  0  0  0  0
    5.2355    0.0459    0.7220 C   0  0  0  0  0  0  0  0  0  0  0  0
    5.9483   -1.0786    0.0097 C   0  0  0  0  0  0  0  0  0  0  0  0
    7.3688   -1.2540    0.6754 B   0  0  0  0  0  0  0  0  0  0  0  0
    5.2251   -2.2711    0.0804 O   0  0  0  0  0  0  0  0  0  0  0  0
    3.9521   -1.9613    0.5767 C   0  0  0  0  0  0  0  0  0  0  0  0
    3.2330   -3.2323    0.9696 C   0  0  0  0  0  0  0  0  0  0  0  0
    2.8633   -4.0556   -0.2533 C   0  0  0  0  0  0  0  0  0  0  0  0
    1.5046   -4.6863   -0.0480 C   0  0  0  0  0  0  0  0  0  0  0  0
    1.1755   -4.6844    1.3771 N   0  0  0  0  0  1  0  0  0  0  0  0
    1.4527   -6.0939   -0.5573 C   0  0  0  0  0  0  0  0  0  0  0  0
    0.4891   -3.7850   -0.7203 C   0  0  0  0  0  0  0  0  0  0  0  0
    0.3275   -2.5704    0.1935 C   0  0  0  0  0  0  0  0  0  0  0  0
   -1.0774   -2.6940    0.7930 C   0  0  0  0  0  0  0  0  0  0  0  0
   -1.8680   -1.7748    0.1394 O   0  0  0  0  0  0  0  0  0  0  0  0
   -3.1928   -2.1954   -0.0023 C   0  0  1  0  0  0  0  0  0  0  0  0
   -3.2807   -3.5362   -0.5562 N   0  0  0  0  0  1  0  0  0  0  0  0
   -3.7375   -2.2496    1.2753 O   0  0  0  0  0  1  0  0  0  0  0  0
   -3.8536   -1.2754   -0.8744 N   0  0  0  0  0  3  0  0  0  0  0  0
   -4.6861   -1.8741   -1.8641 C   0  0  0  0  0  0  0  0  0  0  0  0
   -4.3968   -0.1226   -0.2358 C   0  0  0  0  0  0  0  0  0  0  0  0
   -4.8321   -0.3418    1.1138 N   0  0  0  0  0  2  0  0  0  0  0  0
   -6.1539   -0.8320    1.1630 N   0  0  0  0  0  1  0  0  0  0  0  0
   -5.5265    0.3592   -0.9973 N   0  0  0  0  0  1  0  0  0  0  0  0
  1  2  1  0
  2  3  1  0
  2  4  1  0
  4  5  1  0
  5  6  1  0
  6  7  1  0
  7  8  1  0
  7  9  1  0
  9 10  1  0
 10 11  1  0
 11 12  1  0
 12 13  1  0
 13 14  1  0
 14 15  1  0
 15 16  1  0
 16 17  1  0
 17 18  1  0
 17 19  1  0
 19 20  1  0
 20 21  1  0
 21 22  1  0
 22 23  1  0
 23 24  1  0
 23 25  1  0
 23 26  1  0
 26 27  1  0
 27 28  1  0
 28 29  1  0
 29 30  1  0
 30 31  1  6
 30 32  1  0
 30 33  1  0
 33 34  1  0
 33 35  1  0
 35 36  1  0
 36 37  1  0
 35 38  1  0
 35  1  1  0
M  RAD  8   9   2  10   2  24   2  31   2  33   2  36   3  37   2  38   2
M  CHG  7  24   1  31   1  32  -1  33   1  36   1  37   1  38   1
M  END
$$$$
