
     RDKit          3D

 44 46  0  0  0  0  0  0  0  0999 V2000
    4.7470   -0.1993   -1.7535 C   0  0  0  0  0  0  0  0  0  0  0  0
    5.5722   -0.0131   -0.5168 C   0  0  1  0  0  0  0  0  0  0  0  0
    5.8378    1.5060   -0.3316 C   0  0  0  0  0  0  0  0  0  0  0  0
    6.3724    1.7086    1.0733 C   0  0  2  0  0  0  0  0  0  0  0  0
    7.4410    2.5636    0.9570 O   0  0  0  0  0  0  0  0  0  0  0  0
    6.8562    0.3827    1.6389 C   0  0  2  0  0  0  0  0  0  0  0  0
    7.7915   -0.2237    0.7965 O   0  0  0  0  0  0  0  0  0  0  0  0
    5.7246   -0.5597    1.8801 C   0  0  1  0  0  0  0  0  0  0  0  0
    5.0206   -0.2579    3.0373 O   0  0  0  0  0  0  0  0  0  0  0  0
    4.7749   -0.4514    0.7086 C   0  0  1  0  0  0  0  0  0  0  0  0
    3.8479    0.6662    1.0567 N   0  0  0  0  0  0  0  0  0  0  0  0
    2.9784    0.8036   -0.0750 C   0  0  0  0  0  3  0  0  0  0  0  0
    1.5722    0.7068    0.2057 C   0  0  0  0  0  0  0  0  0  0  0  0
    1.0654    1.6544    1.3078 C   0  0  0  0  0  0  0  0  0  0  0  0
    1.0781   -0.5892    0.5665 O   0  0  0  0  0  0  0  0  0  0  0  0
    2.0532   -1.5113    0.5177 C   0  0  0  0  0  0  0  0  0  0  0  0
    2.1045   -2.2972   -0.6368 O   0  0  0  0  0  0  0  0  0  0  0  0
    1.8771   -1.5699   -1.6663 O   0  0  0  0  0  0  0  0  0  0  0  0
    1.6962   -2.1435   -2.8867 C   0  0  2  0  0  0  0  0  0  0  0  0
    2.8478   -1.9829   -3.7396 N   0  0  0  0  0  0  0  0  0  0  0  0
    0.6615   -1.3894   -3.5365 O   0  0  0  0  0  0  0  0  0  0  0  0
    0.0081   -0.6083   -2.5686 C   0  0  0  0  0  0  0  0  0  0  0  0
    0.8856    0.3175   -2.0610 O   0  0  0  0  0  0  0  0  0  0  0  0
    0.6849    1.0518   -1.0173 C   0  0  1  0  0  0  0  0  0  0  0  0
   -0.6223    1.0456   -0.3882 O   0  0  0  0  0  0  0  0  0  0  0  0
   -1.2061    0.0310   -0.9595 O   0  0  0  0  0  0  0  0  0  0  0  0
   -2.4885   -0.0744   -1.0093 N   0  0  0  0  0  0  0  0  0  0  0  0
   -3.0120    1.0119   -1.7723 C   0  0  0  0  0  3  0  0  0  0  0  0
   -3.3763    2.0563   -0.8172 N   0  0  0  0  0  0  0  0  0  0  0  0
   -4.6014    2.6360   -1.3238 C   0  0  0  0  0  3  0  0  0  0  0  0
   -5.6970    2.2694   -0.5524 O   0  0  0  0  0  0  0  0  0  0  0  0
   -6.6039    1.5783   -1.3241 C   0  0  0  0  0  3  0  0  0  0  0  0
   -6.9386    0.3498   -0.7589 O   0  0  0  0  0  0  0  0  0  0  0  0
   -6.4000   -0.6092   -1.5285 N   0  0  0  0  0  0  0  0  0  0  0  0
   -4.9255   -0.5008   -1.3933 C   0  0  2  0  0  0  0  0  0  0  0  0
   -4.4631   -1.6950   -1.9453 O   0  0  0  0  0  0  0  0  0  0  0  0
   -4.6242   -0.3148    0.0614 C   0  0  0  0  0  3  0  0  0  0  0  0
   -3.0596   -0.1221    0.2884 C   0  0  1  0  0  0  0  0  0  0  0  0
   -2.8046   -1.3188    1.0063 O   0  0  0  0  0  0  0  0  0  0  0  0
   -3.2933   -1.2379    2.2145 C   0  0  0  0  0  0  0  0  0  0  0  0
   -4.6207   -1.0306    2.5060 O   0  0  0  0  0  0  0  0  0  0  0  0
   -5.0937   -0.8906    3.8313 N   0  0  0  0  0  0  0  0  0  0  0  0
   -4.5792   -0.0962    4.6426 C   0  0  0  0  0  0  0  0  0  0  0  0
   -5.0894    0.1461    6.2661 Cl  0  0  0  0  0  0  0  0  0  0  0  0
  2  1  1  6
  2  3  1  0
  3  4  1  0
  4  5  1  6
  4  6  1  0
  6  7  1  6
  6  8  1  0
  8  9  1  1
  8 10  1  0
 10 11  1  1
 11 12  1  0
 12 13  1  0
 13 14  1  0
 13 15  1  0
 15 16  1  0
 16 17  1  0
 17 18  1  0
 18 19  1  0
 19 20  1  6
 19 21  1  0
 21 22  1  0
 22 23  1  0
 23 24  1  0
 24 25  1  1
 25 26  1  0
 26 27  1  0
 27 28  1  0
 28 29  1  0
 29 30  1  0
 30 31  1  0
 31 32  1  0
 32 33  1  0
 33 34  1  0
 34 35  1  0
 35 36  1  1
 35 37  1  0
 37 38  1  0
 38 39  1  1
 39 40  1  0
 40 41  1  0
 41 42  1  0
 42 43  2  3
 43 44  1  0
 10  2  1  0
 24 13  1  0
 38 27  1  0
M  RAD  5  12   2  28   2  30   2  32   2  37   2
M  END
$$$$
