
     RDKit          3D

 21 20  0  0  0  0  0  0  0  0999 V2000
   -5.1896    1.1384   -0.0772 C   0  0  0  0  0  0  0  0  0  0  0  0
   -4.1760    0.4487    0.7987 C   0  0  0  0  0  0  0  0  0  0  0  0
   -4.3944    0.8958    2.2437 C   0  0  0  0  0  0  0  0  0  0  0  0
   -3.3987    0.2291    3.1633 C   0  0  0  0  0  0  0  0  0  0  0  0
   -1.9858    0.6095    2.7332 C   0  0  0  0  0  0  0  0  0  0  0  0
   -1.7597    0.1430    1.3036 C   0  0  0  0  0  0  0  0  0  0  0  0
   -1.9375   -1.3519    1.2847 C   0  0  0  0  0  0  0  0  0  0  0  0
   -1.7382   -1.9394   -0.0845 C   0  0  0  0  0  0  0  0  0  0  0  0
   -0.3519   -1.6515   -0.5957 C   0  0  0  0  0  0  0  0  0  0  0  0
   -0.1023   -0.1426   -0.6890 C   0  0  0  0  0  0  0  0  0  0  0  0
    1.2785    0.1045   -1.1983 C   0  0  0  0  0  0  0  0  0  0  0  0
    2.2642   -0.5234   -0.2356 C   0  0  0  0  0  0  0  0  0  0  0  0
    2.0483    0.1430    1.1159 C   0  0  0  0  0  0  0  0  0  0  0  0
    2.9745   -0.3980    2.1650 C   0  0  0  0  0  0  0  0  0  0  0  0
    4.3991   -0.1675    1.7617 C   0  0  0  0  0  0  0  0  0  0  0  0
    4.7017    1.2863    1.5868 C   0  0  0  0  0  0  0  0  0  0  0  0
    3.8122    2.1069    1.7773 O   0  0  0  0  0  0  0  0  0  0  0  0
    1.5433   -0.4451   -2.5573 C   0  0  0  0  0  0  0  0  0  0  0  0
    0.6296    0.1318   -3.6159 C   0  0  0  0  0  0  0  0  0  0  0  0
    0.9790   -0.4809   -4.9191 C   0  0  0  0  0  0  0  0  0  0  0  0
    0.4037   -0.2039   -5.9613 O   0  0  0  0  0  0  0  0  0  0  0  0
  1  2  1  0
  2  3  1  0
  3  4  1  0
  4  5  1  0
  5  6  1  0
  6  7  1  0
  7  8  1  0
  8  9  1  0
  9 10  1  0
 10 11  1  0
 11 12  1  0
 12 13  1  0
 13 14  1  0
 14 15  1  0
 15 16  1  0
 16 17  2  0
 11 18  1  0
 18 19  1  0
 19 20  1  0
 20 21  2  0
M  END
$$$$
