
     RDKit          3D

 64 68  0  0  0  0  0  0  0  0999 V2000
    5.7852    2.1697   -1.6275 C   0  0  0  0  0  0  0  0  0  0  0  0
    5.7950    3.5289   -0.9188 C   0  0  1  0  0  0  0  0  0  0  0  0
    4.3324    3.8805   -0.6687 C   0  0  0  0  0  0  0  0  0  0  0  0
    3.6107    2.6648   -0.0688 C   0  0  2  0  0  0  0  0  0  0  0  0
    2.8168    3.1854    0.9782 O   0  0  0  0  0  0  0  0  0  0  0  0
    4.6729    1.8134    0.5573 C   0  0  2  0  0  0  0  0  0  0  0  0
    4.2304    0.6701    1.1638 O   0  0  0  0  0  0  0  0  0  0  0  0
    5.5581    2.6895    1.3770 C   0  0  1  0  0  0  0  0  0  0  0  0
    6.1846    2.0741    2.4300 O   0  0  0  0  0  0  0  0  0  0  0  0
    6.5435    3.3534    0.4077 C   0  0  1  0  0  0  0  0  0  0  0  0
    7.5960    2.3554    0.1807 N   0  0  0  0  0  0  0  0  0  0  0  0
    7.0406    1.0183    0.3960 C   0  0  0  0  0  3  0  0  0  0  0  0
    7.9401    0.2244    1.2859 C   0  0  0  0  0  0  0  0  0  0  0  0
    7.2515   -0.9470    1.9001 C   0  0  0  0  0  0  0  0  0  0  0  0
    7.6525   -2.1143    1.2996 O   0  0  0  0  0  0  0  0  0  0  0  0
    5.8420   -0.8084    2.0897 N   0  0  0  0  0  0  0  0  0  0  0  0
    5.1611   -0.3359    0.9289 C   0  0  1  0  0  0  0  0  0  0  0  0
    4.6784   -1.3879   -0.0136 C   0  0  1  0  0  0  0  0  0  0  0  0
    5.7443   -2.1636   -0.5100 O   0  0  0  0  0  0  0  0  0  0  0  0
    3.6141   -2.2757    0.5997 C   0  0  2  0  0  0  0  0  0  0  0  0
    4.1551   -2.9851    1.8322 C   0  0  0  0  0  2  0  0  0  0  0  0
    3.2684   -3.3183   -0.4599 C   0  0  0  0  0  3  0  0  0  0  0  0
    2.7423   -2.5931   -1.6743 C   0  0  0  0  0  0  0  0  0  0  0  0
    3.7042   -1.7020   -2.1071 O   0  0  0  0  0  0  0  0  0  0  0  0
    3.1825   -0.4993   -2.2555 O   0  0  0  0  0  0  0  0  0  0  0  0
    2.7182   -0.3279   -3.4814 O   0  0  0  0  0  0  0  0  0  0  0  0
    1.6461    0.4351   -3.4077 O   0  0  0  0  0  0  0  0  0  0  0  0
    0.8703    0.0371   -2.3255 C   0  0  2  0  0  0  0  0  0  0  0  0
    1.4254    0.5261   -1.1544 O   0  0  0  0  0  0  0  0  0  0  0  0
    0.7884   -1.3535   -2.3267 O   0  0  0  0  0  0  0  0  0  0  0  0
    1.4888   -1.8314   -1.2195 C   0  0  1  0  0  0  0  0  0  0  0  0
    0.7399   -2.7687   -0.5061 O   0  0  0  0  0  0  0  0  0  0  0  0
   -0.4436   -2.2520   -0.0337 C   0  0  1  0  0  0  0  0  0  0  0  0
   -0.2381   -1.1837    0.8191 O   0  0  0  0  0  0  0  0  0  0  0  0
   -1.3481   -1.7507   -1.1679 C   0  0  1  0  0  0  0  0  0  0  0  0
   -1.5994   -2.8789   -1.9826 O   0  0  0  0  0  0  0  0  0  0  0  0
   -0.8470   -3.9100   -1.6576 O   0  0  0  0  0  0  0  0  0  0  0  0
   -1.2251   -4.9084   -0.7727 C   0  0  0  0  0  0  0  0  0  0  0  0
   -2.4614   -5.2220   -0.4829 C   0  0  0  0  0  0  0  0  0  0  0  0
   -3.5615   -4.5895   -1.0294 O   0  0  0  0  0  0  0  0  0  0  0  0
   -4.0105   -3.3718   -0.5043 C   0  0  0  0  0  0  0  0  0  0  0  0
   -4.0765   -3.3367    0.8693 O   0  0  0  0  0  0  0  0  0  0  0  0
   -2.9429   -2.8082    1.4518 C   0  0  0  0  0  3  0  0  0  0  0  0
   -2.6238   -1.4075    0.9725 C   0  0  0  0  0  0  0  0  0  0  0  0
   -2.6698   -1.4057   -0.5214 C   0  0  1  0  0  0  0  0  0  0  0  0
   -3.2141   -0.0727   -0.9816 C   0  0  0  0  0  3  0  0  0  0  0  0
   -4.4530    0.1485   -0.3097 N   0  0  0  0  0  0  0  0  0  0  0  0
   -5.6210    0.0305   -1.1157 C   0  0  2  0  0  0  0  0  0  0  0  0
   -5.8077    1.1418   -1.9356 O   0  0  0  0  0  0  0  0  0  0  0  0
   -6.7271   -0.0498   -0.2587 O   0  0  0  0  0  0  0  0  0  0  0  0
   -6.5922   -1.2370    0.4623 C   0  0  0  0  0  0  0  0  0  0  0  0
   -6.0353   -1.0665    1.7060 O   0  0  0  0  0  0  0  0  0  0  0  0
   -5.8543    0.2427    2.0795 C   0  0  0  0  0  3  0  0  0  0  0  0
   -4.5185    0.6719    1.9160 O   0  0  0  0  0  0  0  0  0  0  0  0
   -4.4572    1.2162    0.6328 C   0  0  1  0  0  0  0  0  0  0  0  0
   -3.4454    2.1326    0.4721 O   0  0  0  0  0  0  0  0  0  0  0  0
   -3.5760    3.3507    1.6704 S   0  0  0  0  0  0  0  0  0  0  0  0
   -4.6523    4.7031    1.1736 C   0  0  0  0  0  0  0  0  0  0  0  0
   -5.9832    4.3253    1.0390 O   0  0  0  0  0  0  0  0  0  0  0  0
   -6.6855    5.4755    0.6527 C   0  0  0  0  0  0  0  0  0  0  0  0
   -8.1472    5.2319    0.4662 C   0  0  0  0  0  0  0  0  0  0  0  0
   -8.4176    4.2663   -0.5219 O   0  0  0  0  0  0  0  0  0  0  0  0
   -7.7996    3.0956   -0.0947 C   0  0  0  0  0  3  0  0  0  0  0  0
   -8.7447    2.2049    0.4203 O   0  0  0  0  0  0  0  0  0  0  0  0
  2  1  1  1
  2  3  1  0
  3  4  1  0
  4  5  1  1
  4  6  1  0
  6  7  1  1
  6  8  1  0
  8  9  1  1
  8 10  1  0
 10 11  1  6
 11 12  1  0
 12 13  1  0
 13 14  1  0
 14 15  1  0
 14 16  1  0
 17 16  1  1
 17 18  1  0
 18 19  1  1
 18 20  1  0
 20 21  1  1
 20 22  1  0
 22 23  1  0
 23 24  1  0
 24 25  1  0
 25 26  1  0
 26 27  1  0
 27 28  1  0
 28 29  1  1
 28 30  1  0
 30 31  1  0
 31 32  1  6
 32 33  1  0
 33 34  1  1
 33 35  1  0
 35 36  1  6
 36 37  1  0
 37 38  1  0
 38 39  2  3
 39 40  1  0
 40 41  1  0
 41 42  1  0
 42 43  1  0
 43 44  1  0
 44 45  1  0
 45 46  1  6
 46 47  1  0
 47 48  1  0
 48 49  1  6
 48 50  1  0
 50 51  1  0
 51 52  1  0
 52 53  1  0
 53 54  1  0
 54 55  1  0
 55 56  1  1
 56 57  1  0
 57 58  1  0
 58 59  1  0
 59 60  1  0
 60 61  1  0
 61 62  1  0
 62 63  1  0
 63 64  1  0
 10  2  1  0
 17  7  1  0
 31 23  1  0
 45 35  1  0
 55 47  1  0
M  RAD  7  12   2  21   3  22   2  43   2  46   2  53   2  63   2
M  END
$$$$
