
     RDKit          3D

 11 11  0  0  0  0  0  0  0  0999 V2000
    2.9748   -0.0778    0.7854 O   0  0  0  0  0  0  0  0  0  0  0  0
    2.3143    0.4799   -0.2956 C   0  0  0  0  0  0  0  0  0  0  0  0
    0.8414    0.4818   -0.1947 C   0  0  2  0  0  0  0  0  0  0  0  0
    0.3060    1.2047    0.9303 N   0  0  0  0  0  0  0  0  0  0  0  0
   -1.0962    1.4540    0.6576 C   0  0  0  0  0  3  0  0  0  0  0  0
   -1.8804    0.2279    0.3566 C   0  0  2  0  0  0  0  0  0  0  0  0
   -2.1825   -0.5006    1.4815 O   0  0  0  0  0  0  0  0  0  0  0  0
   -1.2270   -0.6709   -0.6785 C   0  0  1  0  0  0  0  0  0  0  0  0
   -1.1458    0.0878   -1.8626 O   0  0  0  0  0  0  0  0  0  0  0  0
    0.2078   -0.8820   -0.2129 C   0  0  1  0  0  0  0  0  0  0  0  0
    0.8875   -1.8048   -0.9671 O   0  0  0  0  0  0  0  0  0  0  0  0
  1  2  1  0
  3  2  1  1
  3  4  1  0
  4  5  1  0
  5  6  1  0
  6  7  1  1
  6  8  1  0
  8  9  1  6
  8 10  1  0
 10 11  1  6
 10  3  1  0
M  RAD  1   5   2
M  END
$$$$
