
     RDKit          3D

 25 27  0  0  0  0  0  0  0  0999 V2000
    3.6659   -0.4389    1.3787 C   0  0  0  0  0  0  0  0  0  0  0  0
    4.6946   -1.3735    1.3163 O   0  0  0  0  0  0  0  0  0  0  0  0
    5.0068   -1.7174   -0.0017 C   0  0  0  0  0  3  0  0  0  0  0  0
    5.4565   -0.6189   -0.7398 O   0  0  0  0  0  0  0  0  0  0  0  0
    4.5004    0.3777   -0.8450 C   0  0  2  0  0  0  0  0  0  0  0  0
    5.0610    1.7054   -0.3950 C   0  0  0  0  0  0  0  0  0  0  0  0
    3.3133   -0.0598   -0.0205 C   0  0  2  0  0  0  0  0  0  0  0  0
    2.2152    0.8798   -0.0976 N   0  0  0  0  0  0  0  0  0  0  0  0
    1.0704    0.2150    0.4561 C   0  0  1  0  0  0  0  0  0  0  0  0
   -0.0014    0.9090    1.1601 C   0  0  0  0  0  0  0  0  0  0  0  0
   -0.2560    0.1528   -0.1810 C   0  0  0  0  0  0  0  0  0  0  0  0
   -0.7055    0.9922   -1.1417 O   0  0  0  0  0  0  0  0  0  0  0  0
   -0.9707   -1.1538   -0.1176 C   0  0  0  0  0  0  0  0  0  0  0  0
   -1.2270   -1.6427    1.2639 C   0  0  0  0  0  0  0  0  0  0  0  0
   -1.4817   -3.1473    1.1680 C   0  0  0  0  0  3  0  0  0  0  0  0
   -2.6981   -3.3695    0.5060 O   0  0  0  0  0  0  0  0  0  0  0  0
   -2.9081   -2.4751   -0.5255 C   0  0  0  0  0  0  0  0  0  0  0  0
   -4.1691   -1.8876   -0.5094 O   0  0  0  0  0  0  0  0  0  0  0  0
   -4.1662   -0.5876   -0.9493 C   0  0  0  0  0  3  0  0  0  0  0  0
   -3.8490    0.4307    0.1223 C   0  0  0  0  0  3  0  0  0  0  0  0
   -2.5017    0.7282    0.2397 O   0  0  0  0  0  0  0  0  0  0  0  0
   -1.9951    1.4292   -0.8379 C   0  0  1  0  0  0  0  0  0  0  0  0
   -1.8619    2.7741   -0.4566 O   0  0  0  0  0  0  0  0  0  0  0  0
   -3.1389    3.2480   -0.1451 C   0  0  0  0  0  3  0  0  0  0  0  0
   -3.0537    4.6297    0.1208 O   0  0  0  0  0  0  0  0  0  0  0  0
  1  2  1  0
  2  3  1  0
  3  4  1  0
  4  5  1  0
  5  6  1  1
  5  7  1  0
  7  8  1  1
  9  8  1  6
  9 10  1  0
 10 11  1  0
 11 12  1  0
 11 13  1  0
 13 14  1  0
 14 15  1  0
 15 16  1  0
 16 17  1  0
 17 18  1  0
 18 19  1  0
 19 20  1  0
 20 21  1  0
 21 22  1  0
 22 23  1  1
 23 24  1  0
 24 25  1  0
  7  1  1  0
 11  9  1  0
 22 12  1  0
M  RAD  5   3   2  15   2  19   2  20   2  24   2
M  END
$$$$
