
     RDKit          3D

 12 13  0  0  0  0  0  0  0  0999 V2000
   -1.2614    0.2433    0.7826 C   0  0  0  0  0  0  0  0  0  0  0  0
   -1.7621   -0.7218    0.1612 N   0  0  0  0  0  4  0  0  0  0  0  0
   -2.5938   -2.0188   -0.5874 S   0  0  0  0  0  0  0  0  0  0  0  0
   -1.1383   -1.4511   -0.8541 C   0  0  0  0  0  0  0  0  0  0  0  0
    0.1539   -1.2298   -1.3528 N   0  0  0  0  0  0  0  0  0  0  0  0
    1.1346   -0.0538   -0.1741 S   0  0  0  0  0  0  0  0  0  0  0  0
    2.3038    0.8215   -1.3591 C   0  0  0  0  0  2  0  0  0  0  0  0
   -0.2511    0.8898    0.2950 C   0  0  0  0  0  0  0  0  0  0  0  0
   -0.2939    2.3367    0.1549 C   0  0  0  0  0  0  0  0  0  0  0  0
   -1.3249    2.9695    0.4351 O   0  0  0  0  0  0  0  0  0  0  0  0
    1.9750   -1.0754    1.0251 C   0  0  0  0  0  0  0  0  0  0  0  0
    3.0584   -0.7102    1.4736 O   0  0  0  0  0  0  0  0  0  0  0  0
  1  2  2  0
  2  3  1  0
  3  4  2  0
  4  5  1  0
  5  6  1  0
  6  7  1  0
  6  8  1  0
  8  9  1  0
  9 10  2  0
  6 11  1  0
 11 12  2  0
  1  8  2  0
  4  2  1  0
M  CHG  1   2   1
M  RAD  1   7   3
M  END
$$$$
