
     RDKit          3D

 14 14  0  0  0  0  0  0  0  0999 V2000
    1.6225   -0.6603    1.9920 N   0  0  0  0  0  0  0  0  0  0  0  0
    2.3154   -0.7425    0.7233 C   0  0  1  0  0  0  0  0  0  0  0  0
    1.4163   -1.4872   -0.2399 C   0  0  0  0  0  0  0  0  0  0  0  0
    0.1197   -0.8011   -0.4391 C   0  0  0  0  0  0  0  0  0  0  0  0
   -0.0051    0.1292   -1.4430 C   0  0  0  0  0  0  0  0  0  0  0  0
   -1.1700    0.8203   -1.7070 C   0  0  0  0  0  0  0  0  0  0  0  0
   -2.2594    0.5435   -0.9023 C   0  0  0  0  0  0  0  0  0  0  0  0
   -3.4409    1.2086   -1.1292 O   0  0  0  0  0  0  0  0  0  0  0  0
   -2.1693   -0.3776    0.1068 C   0  0  0  0  0  0  0  0  0  0  0  0
   -3.2984   -0.6169    0.8867 O   0  0  0  0  0  0  0  0  0  0  0  0
   -0.9875   -1.0487    0.3405 C   0  0  0  0  0  0  0  0  0  0  0  0
    2.5322    0.6174    0.1798 C   0  0  0  0  0  0  0  0  0  0  0  0
    2.1376    1.6584    0.7974 O   0  0  0  0  0  0  0  0  0  0  0  0
    3.1868    0.7570   -1.0415 O   0  0  0  0  0  0  0  0  0  0  0  0
  2  1  1  1
  2  3  1  0
  3  4  1  0
  4  5  2  0
  5  6  1  0
  6  7  2  0
  7  8  1  0
  7  9  1  0
  9 10  1  0
  9 11  2  0
  2 12  1  0
 12 13  2  0
 12 14  1  0
 11  4  1  0
M  END
$$$$
