
     RDKit          3D

 25 25  0  0  0  0  0  0  0  0999 V2000
   -2.1629   -1.5379    1.9071 C   0  0  0  0  0  0  0  0  0  0  0  0
   -2.9089   -1.1438    0.6687 C   0  0  1  0  0  0  0  0  0  0  0  0
   -4.1546   -1.9108    0.5445 C   0  0  0  0  0  0  0  0  0  0  0  0
   -5.4222   -1.1898    0.4961 C   0  0  2  0  0  0  0  0  0  0  0  0
   -5.9926   -1.3079   -0.7751 O   0  0  0  0  0  0  0  0  0  0  0  0
   -5.4506    0.2167    0.9481 C   0  0  2  0  0  0  0  0  0  0  0  0
   -5.8967    1.0369   -0.0882 O   0  0  0  0  0  0  0  0  0  0  0  0
   -4.1667    0.7645    1.4561 C   0  0  1  0  0  0  0  0  0  0  0  0
   -3.9343    0.2667    2.7352 O   0  0  0  0  0  0  0  0  0  0  0  0
   -3.0728    0.3268    0.4887 C   0  0  1  0  0  0  0  0  0  0  0  0
   -1.8493    1.0592    0.7060 N   0  0  0  0  0  0  0  0  0  0  0  0
   -0.8926    0.6220   -0.2941 C   0  0  0  0  0  3  0  0  0  0  0  0
    0.3559    0.2025    0.4896 C   0  0  0  0  0  0  0  0  0  0  0  0
    0.7875    1.4663    1.2429 C   0  0  0  0  0  0  0  0  0  0  0  0
    1.3853   -0.1791   -0.3729 O   0  0  0  0  0  0  0  0  0  0  0  0
    1.7510    0.8631   -1.2244 C   0  0  1  0  0  0  0  0  0  0  0  0
    2.1952    1.9676   -0.4774 O   0  0  0  0  0  0  0  0  0  0  0  0
    2.9686    0.3965   -2.0118 C   0  0  2  0  0  0  0  0  0  0  0  0
    2.6532   -0.7401   -2.7481 O   0  0  0  0  0  0  0  0  0  0  0  0
    4.1092    0.1403   -1.0459 C   0  0  2  0  0  0  0  0  0  0  0  0
    4.3421    1.3349   -0.3621 O   0  0  0  0  0  0  0  0  0  0  0  0
    5.3483   -0.1629   -1.8732 C   0  0  0  0  0  3  0  0  0  0  0  0
    6.5452   -0.4357   -0.9810 C   0  0  0  0  0  0  0  0  0  0  0  0
    6.1844   -1.6323   -0.1288 C   0  0  0  0  0  3  0  0  0  0  0  0
    7.2781   -1.8985    0.6997 O   0  0  0  0  0  0  0  0  0  0  0  0
  2  1  1  1
  2  3  1  0
  3  4  1  0
  4  5  1  6
  4  6  1  0
  6  7  1  6
  6  8  1  0
  8  9  1  1
  8 10  1  0
 10 11  1  1
 11 12  1  0
 12 13  1  0
 13 14  1  0
 13 15  1  0
 15 16  1  0
 16 17  1  1
 16 18  1  0
 18 19  1  1
 18 20  1  0
 20 21  1  6
 20 22  1  0
 22 23  1  0
 23 24  1  0
 24 25  1  0
 10  2  1  0
M  RAD  3  12   2  22   2  24   2
M  END
$$$$
