
     RDKit          3D

 31 33  0  0  0  0  0  0  0  0999 V2000
    1.2340    3.2359    1.1052 C   0  0  0  0  0  0  0  0  0  0  0  0
    2.1491    2.9231   -0.0440 C   0  0  1  0  0  0  0  0  0  0  0  0
    3.5919    3.1430    0.3725 C   0  0  0  0  0  0  0  0  0  0  0  0
    4.5631    2.6029   -0.6398 C   0  0  2  0  0  0  0  0  0  0  0  0
    4.5035    3.3121   -1.8265 O   0  0  0  0  0  0  0  0  0  0  0  0
    4.4064    1.1047   -0.8533 C   0  0  2  0  0  0  0  0  0  0  0  0
    4.0281    0.9445   -2.1959 O   0  0  0  0  0  0  0  0  0  0  0  0
    3.1964    0.6828   -0.0276 C   0  0  1  0  0  0  0  0  0  0  0  0
    3.4105    0.9293    1.3240 O   0  0  0  0  0  0  0  0  0  0  0  0
    2.0385    1.5112   -0.5237 C   0  0  1  0  0  0  0  0  0  0  0  0
    0.8124    0.8575   -0.1953 N   0  0  0  0  0  0  0  0  0  0  0  0
    0.9787   -0.5723   -0.5465 C   0  0  1  0  0  0  0  0  0  0  0  0
    1.7834   -1.1885    0.5789 C   0  0  0  0  0  0  0  0  0  0  0  0
    2.4722   -2.4498    0.1998 C   0  0  0  0  0  0  0  0  0  0  0  0
    1.9851   -3.5491    1.0945 O   0  0  0  0  0  0  0  0  0  0  0  0
    1.8929   -3.5083   -0.3972 C   0  0  1  0  0  0  0  0  0  0  0  0
    0.5964   -3.5429   -0.8671 O   0  0  0  0  0  0  0  0  0  0  0  0
   -0.3644   -3.5570    0.1281 C   0  0  1  0  0  0  0  0  0  0  0  0
   -0.0318   -4.3446    1.2143 O   0  0  0  0  0  0  0  0  0  0  0  0
   -0.5807   -2.1320    0.5675 C   0  0  2  0  0  0  0  0  0  0  0  0
   -1.7663   -1.9275    1.2439 O   0  0  0  0  0  0  0  0  0  0  0  0
   -0.3582   -1.2375   -0.5706 C   0  0  1  0  0  0  0  0  0  0  0  0
   -1.3416   -0.3099   -0.8834 O   0  0  0  0  0  0  0  0  0  0  0  0
   -2.1765   -0.0880    0.1181 N   0  0  0  0  0  0  0  0  0  0  0  0
   -3.4687   -0.4600   -0.2025 N   0  0  0  0  0  0  0  0  0  0  0  0
   -4.3340    0.6651    0.0698 C   0  0  2  0  0  0  0  0  0  0  0  0
   -3.8638    1.2961    1.2194 O   0  0  0  0  0  0  0  0  0  0  0  0
   -5.6860    0.1611    0.3413 N   0  0  0  0  0  0  0  0  0  0  0  0
   -6.4430    1.3027    0.8291 C   0  0  0  0  0  3  0  0  0  0  0  0
   -6.3992    2.3912   -0.2300 C   0  0  0  0  0  3  0  0  0  0  0  0
   -6.8286    1.8045   -1.5530 C   0  0  0  0  0  2  0  0  0  0  0  0
  2  1  1  1
  2  3  1  0
  3  4  1  0
  4  5  1  6
  4  6  1  0
  6  7  1  6
  6  8  1  0
  8  9  1  1
  8 10  1  0
 10 11  1  1
 12 11  1  1
 12 13  1  0
 13 14  1  0
 14 15  1  0
 14 16  1  0
 16 17  1  1
 17 18  1  0
 18 19  1  1
 18 20  1  0
 20 21  1  6
 20 22  1  0
 22 23  1  1
 23 24  1  0
 24 25  1  0
 25 26  1  0
 26 27  1  1
 26 28  1  0
 28 29  1  0
 29 30  1  0
 30 31  1  0
 10  2  1  0
 22 12  1  0
 16 15  1  0
M  RAD  3  29   2  30   2  31   3
M  END
$$$$
