
     RDKit          3D

 18 19  0  0  0  0  0  0  0  0999 V2000
    0.0797   -1.5222   -1.5705 C   0  0  0  0  0  0  0  0  0  0  0  0
   -1.1986   -0.7819   -1.2903 C   0  0  1  0  0  0  0  0  0  0  0  0
   -2.1156   -1.6802   -0.5520 C   0  0  0  0  0  0  0  0  0  0  0  0
   -2.9580   -1.1212    0.5089 C   0  0  2  0  0  0  0  0  0  0  0  0
   -4.2910   -0.9010    0.1534 O   0  0  0  0  0  0  0  0  0  0  0  0
   -2.4556    0.1711    1.1216 C   0  0  2  0  0  0  0  0  0  0  0  0
   -3.4044    0.7257    1.9588 O   0  0  0  0  0  0  0  0  0  0  0  0
   -2.2459    1.1113   -0.0759 C   0  0  1  0  0  0  0  0  0  0  0  0
   -2.1378    2.4282    0.3072 O   0  0  0  0  0  0  0  0  0  0  0  0
   -1.0408    0.5876   -0.7786 C   0  0  1  0  0  0  0  0  0  0  0  0
    0.1594    0.8747   -0.0541 N   0  0  0  0  0  0  0  0  0  0  0  0
    1.2844    0.7142   -0.9246 C   0  0  0  0  0  3  0  0  0  0  0  0
    2.6059    1.0469   -0.2198 C   0  0  0  0  0  0  0  0  0  0  0  0
    3.6767    0.9108   -1.3124 C   0  0  0  0  0  0  0  0  0  0  0  0
    4.5309   -0.1320   -0.9610 O   0  0  0  0  0  0  0  0  0  0  0  0
    3.8235   -1.3406   -0.7794 C   0  0  0  0  0  3  0  0  0  0  0  0
    2.7921   -1.1382    0.1671 O   0  0  0  0  0  0  0  0  0  0  0  0
    2.8950    0.0470    0.7381 O   0  0  0  0  0  0  0  0  0  0  0  0
  2  1  1  1
  2  3  1  0
  3  4  1  0
  4  5  1  6
  4  6  1  0
  6  7  1  1
  6  8  1  0
  8  9  1  1
  8 10  1  0
 10 11  1  1
 11 12  1  0
 12 13  1  0
 13 14  1  0
 14 15  1  0
 15 16  1  0
 16 17  1  0
 13 18  1  0
 10  2  1  0
 18 17  1  0
M  RAD  2  12   2  16   2
M  END
$$$$
