
     RDKit          3D

 25 25  0  0  0  0  0  0  0  0999 V2000
   -3.9070    1.2004   -0.9510 C   0  0  0  0  0  0  0  0  0  0  0  0
   -4.0312    0.6716    0.4347 C   0  0  1  0  0  0  0  0  0  0  0  0
   -5.2522   -0.2621    0.4943 C   0  0  0  0  0  0  0  0  0  0  0  0
   -5.0996   -1.1479   -0.7366 C   0  0  2  0  0  0  0  0  0  0  0  0
   -6.2714   -1.8377   -0.9588 O   0  0  0  0  0  0  0  0  0  0  0  0
   -3.9044   -2.0481   -0.5266 C   0  0  2  0  0  0  0  0  0  0  0  0
   -4.0496   -2.8875    0.5680 O   0  0  0  0  0  0  0  0  0  0  0  0
   -2.6731   -1.2241   -0.3641 C   0  0  1  0  0  0  0  0  0  0  0  0
   -2.3650   -0.6549   -1.5715 O   0  0  0  0  0  0  0  0  0  0  0  0
   -2.8529   -0.1917    0.7773 C   0  0  1  0  0  0  0  0  0  0  0  0
   -1.6453    0.5752    0.8037 N   0  0  0  0  0  0  0  0  0  0  0  0
   -1.0602    0.8155   -0.4748 C   0  0  0  0  0  3  0  0  0  0  0  0
    0.4792    0.6125   -0.2685 C   0  0  0  0  0  0  0  0  0  0  0  0
    0.8011   -0.8073   -0.8085 C   0  0  0  0  0  0  0  0  0  0  0  0
    0.6567    0.5941    1.1545 O   0  0  0  0  0  0  0  0  0  0  0  0
    1.4249    1.6364    1.5273 C   0  0  0  0  0  3  0  0  0  0  0  0
    2.6574    1.8046    1.0630 O   0  0  0  0  0  0  0  0  0  0  0  0
    2.7692    1.3710   -0.2916 C   0  0  1  0  0  0  0  0  0  0  0  0
    2.3472    2.4792   -1.0695 O   0  0  0  0  0  0  0  0  0  0  0  0
    4.3323    1.4210   -0.5208 C   0  0  1  0  0  0  0  0  0  0  0  0
    4.7500    2.7003   -0.2321 O   0  0  0  0  0  0  0  0  0  0  0  0
    4.8422    0.3738    0.4060 C   0  0  0  0  0  3  0  0  0  0  0  0
    5.7471   -0.5797   -0.3585 C   0  0  0  0  0  0  0  0  0  0  0  0
    5.6397   -1.9039    0.4094 C   0  0  0  0  0  0  0  0  0  0  0  0
    6.6648   -2.7109   -0.0404 O   0  0  0  0  0  0  0  0  0  0  0  0
  2  1  1  6
  2  3  1  0
  3  4  1  0
  4  5  1  1
  4  6  1  0
  6  7  1  1
  6  8  1  0
  8  9  1  6
  8 10  1  0
 10 11  1  6
 11 12  1  0
 12 13  1  0
 13 14  1  0
 13 15  1  0
 15 16  1  0
 16 17  1  0
 17 18  1  0
 18 19  1  6
 18 20  1  0
 20 21  1  1
 20 22  1  0
 22 23  1  0
 23 24  1  0
 24 25  1  0
 10  2  1  0
M  RAD  3  12   2  16   2  22   2
M  END
$$$$
