
     RDKit          3D

  7  7  0  0  0  0  0  0  0  0999 V2000
   -1.4818    0.3054    0.4434 C   0  0  0  0  0  0  0  0  0  0  0  0
   -0.8601    1.4421   -0.3772 C   0  0  0  0  0  2  0  0  0  0  0  0
    0.6193    1.0631   -0.5148 C   0  0  0  0  0  0  0  0  0  0  0  0
    0.7993   -0.1649    0.3806 C   0  0  2  0  0  0  0  0  0  0  0  0
    2.1227   -0.5531    0.4173 O   0  0  0  0  0  0  0  0  0  0  0  0
    0.0246   -1.2288   -0.0519 O   0  0  0  0  0  0  0  0  0  0  0  0
   -1.2240   -0.8638   -0.2975 O   0  0  0  0  0  0  0  0  0  0  0  0
  1  2  1  0
  2  3  1  0
  3  4  1  0
  4  5  1  6
  4  6  1  0
  6  7  1  0
  7  1  1  0
M  RAD  1   2   3
M  END
$$$$
