
     RDKit          3D

 17 16  0  0  0  0  0  0  0  0999 V2000
   -5.0405    2.7990   -0.7693 C   0  0  0  0  0  0  0  0  0  0  0  0
   -3.7282    2.0448   -0.6339 C   0  0  0  0  0  3  0  0  0  0  0  0
   -3.7157    1.4368    0.7530 C   0  0  0  0  0  0  0  0  0  0  0  0
   -2.4269    0.6831    0.9160 C   0  0  2  0  0  0  0  0  0  0  0  0
   -1.3016    1.4768    0.7806 O   0  0  0  0  0  0  0  0  0  0  0  0
   -2.3060   -0.4987   -0.0061 C   0  0  2  0  0  0  0  0  0  0  0  0
   -3.4050   -1.3455    0.0749 O   0  0  0  0  0  0  0  0  0  0  0  0
   -1.0607   -1.2741    0.4450 C   0  0  1  0  0  0  0  0  0  0  0  0
   -0.8595   -2.3799   -0.3748 O   0  0  0  0  0  0  0  0  0  0  0  0
    0.0997   -0.3164    0.2727 C   0  0  0  0  0  3  0  0  0  0  0  0
    1.4080   -0.9268    0.6747 C   0  0  0  0  0  3  0  0  0  0  0  0
    1.8069   -1.9890   -0.1996 N   0  0  0  0  0  0  0  0  0  0  0  0
    3.2135   -2.0675   -0.2760 N   0  0  0  0  0  0  0  0  0  0  0  0
    3.7849   -1.0760    0.6303 C   0  0  0  0  0  3  0  0  0  0  0  0
    3.7601    0.2720   -0.0136 C   0  0  0  0  0  0  0  0  0  0  0  0
    4.8839    0.9528   -0.0546 C   0  0  0  0  0  0  0  0  0  0  0  0
    4.8870    2.2087   -0.6480 O   0  0  0  0  0  0  0  0  0  0  0  0
  1  2  1  0
  2  3  1  0
  3  4  1  0
  4  5  1  6
  4  6  1  0
  6  7  1  1
  6  8  1  0
  8  9  1  6
  8 10  1  0
 10 11  1  0
 11 12  1  0
 12 13  1  0
 13 14  1  0
 14 15  1  0
 15 16  2  3
 16 17  1  0
M  RAD  4   2   2  10   2  11   2  14   2
M  END
$$$$
