
     RDKit          3D

 12 11  0  0  0  0  0  0  0  0999 V2000
    3.2304   -0.5853    0.7698 C   0  0  0  0  0  0  0  0  0  0  0  0
    2.5492    0.1329   -0.1036 C   0  0  0  0  0  0  0  0  0  0  0  0
    2.2456    1.5496    0.1913 C   0  0  0  0  0  0  0  0  0  0  0  0
    2.0854   -0.4598   -1.3728 C   0  0  0  0  0  3  0  0  0  0  0  0
    0.8061   -1.2225   -1.2794 C   0  0  0  0  0  0  0  0  0  0  0  0
   -0.3811   -0.4469   -0.8280 C   0  0  0  0  0  0  0  0  0  0  0  0
   -0.2693    0.1657    0.5185 C   0  0  0  0  0  3  0  0  0  0  0  0
   -0.0456   -0.8194    1.6268 C   0  0  0  0  0  0  0  0  0  0  0  0
   -1.2401    1.2429    0.8240 C   0  0  0  0  0  0  0  0  0  0  0  0
   -2.6799    0.8685    0.7946 C   0  0  0  0  0  0  0  0  0  0  0  0
   -3.1910    0.3582   -0.4751 C   0  0  0  0  0  0  0  0  0  0  0  0
   -3.1095   -0.7837   -0.8872 O   0  0  0  0  0  0  0  0  0  0  0  0
  1  2  2  0
  2  3  1  0
  2  4  1  0
  4  5  1  0
  5  6  1  0
  6  7  1  0
  7  8  1  0
  7  9  1  0
  9 10  1  0
 10 11  1  0
 11 12  2  0
M  RAD  2   4   2   7   2
M  END
$$$$
