
     RDKit          2D

106106  0  0  0  0  0  0  0  0999 V2000
   18.1160  -14.2894    0.0000 C   0  0  0  0  0  0  0  0  0  0  0  0
   16.6160  -14.2894    0.0000 C   0  0  0  0  0  0  0  0  0  0  0  0
   15.8660  -15.5885    0.0000 C   0  0  0  0  0  0  0  0  0  0  0  0
   15.8660  -12.9904    0.0000 C   0  0  0  0  0  0  0  0  0  0  0  0
   14.3660  -12.9904    0.0000 C   0  0  0  0  0  0  0  0  0  0  0  0
   13.6160  -11.6913    0.0000 C   0  0  0  0  0  0  0  0  0  0  0  0
   12.1160  -11.6913    0.0000 C   0  0  0  0  0  0  0  0  0  0  0  0
   11.3660  -12.9904    0.0000 C   0  0  0  0  0  0  0  0  0  0  0  0
   11.3660  -10.3923    0.0000 C   0  0  0  0  0  3  0  0  0  0  0  0
   12.1160   -9.0933    0.0000 C   0  0  0  0  0  0  0  0  0  0  0  0
   11.3660   -7.7942    0.0000 C   0  0  0  0  0  0  0  0  0  0  0  0
   12.1160   -6.4952    0.0000 C   0  0  0  0  0  3  0  0  0  0  0  0
   13.6160   -6.4952    0.0000 C   0  0  0  0  0  0  0  0  0  0  0  0
   11.3660   -5.1962    0.0000 C   0  0  0  0  0  3  0  0  0  0  0  0
    9.8660   -5.1962    0.0000 C   0  0  0  0  0  0  0  0  0  0  0  0
    9.1160   -3.8971    0.0000 C   0  0  0  0  0  0  0  0  0  0  0  0
    7.6160   -3.8971    0.0000 C   0  0  0  0  0  0  0  0  0  0  0  0
    6.8660   -5.1962    0.0000 C   0  0  0  0  0  0  0  0  0  0  0  0
    7.6160   -6.4952    0.0000 C   0  0  0  0  0  0  0  0  0  0  0  0
    6.8660   -7.7942    0.0000 C   0  0  0  0  0  0  0  0  0  0  0  0
    7.6160   -9.0933    0.0000 C   0  0  0  0  0  0  0  0  0  0  0  0
    5.3660   -7.7942    0.0000 C   0  0  0  0  0  3  0  0  0  0  0  0
    4.6160   -9.0933    0.0000 C   0  0  0  0  0  0  0  0  0  0  0  0
    3.1160   -9.0933    0.0000 C   0  0  0  0  0  0  0  0  0  0  0  0
    2.3660  -10.3923    0.0000 C   0  0  0  0  0  0  0  0  0  0  0  0
    0.8660  -10.3923    0.0000 C   0  0  0  0  0  0  0  0  0  0  0  0
    0.1160  -11.6913    0.0000 C   0  0  0  0  0  3  0  0  0  0  0  0
   -1.3840  -11.6913    0.0000 C   0  0  0  0  0  0  0  0  0  0  0  0
    6.8660   -2.5981    0.0000 C   0  0  0  0  0  0  0  0  0  0  0  0
    5.3660   -2.5981    0.0000 C   0  0  0  0  0  0  0  0  0  0  0  0
    4.6160   -1.2990    0.0000 C   0  0  0  0  0  0  0  0  0  0  0  0
    3.1160   -1.2990    0.0000 C   0  0  0  0  0  0  0  0  0  0  0  0
    2.3660    0.0000    0.0000 C   0  0  0  0  0  0  0  0  0  0  0  0
    0.8660    0.0000    0.0000 C   0  0  0  0  0  0  0  0  0  0  0  0
   -0.4330    0.7500    0.0000 C   0  0  0  0  0  3  0  0  0  0  0  0
   -0.4330   -0.7500    0.0000 C   0  0  0  0  0  0  0  0  0  0  0  0
   -1.1830   -2.0490    0.0000 C   0  0  0  0  0  0  0  0  0  0  0  0
   -2.6830   -2.0490    0.0000 C   0  0  0  0  0  0  0  0  0  0  0  0
   -3.4330   -3.3481    0.0000 C   0  0  0  0  0  0  0  0  0  0  0  0
   -4.9330   -3.3481    0.0000 C   0  0  0  0  0  0  0  0  0  0  0  0
   -5.6830   -4.6471    0.0000 C   0  0  0  0  0  0  0  0  0  0  0  0
   -7.1830   -4.6471    0.0000 C   0  0  0  0  0  0  0  0  0  0  0  0
   -7.9330   -5.9462    0.0000 C   0  0  0  0  0  3  0  0  0  0  0  0
   -9.4330   -5.9462    0.0000 C   0  0  0  0  0  0  0  0  0  0  0  0
  -10.1830   -7.2452    0.0000 C   0  0  0  0  0  0  0  0  0  0  0  0
  -11.6830   -7.2452    0.0000 C   0  0  0  0  0  3  0  0  0  0  0  0
  -12.4330   -8.5442    0.0000 C   0  0  0  0  0  0  0  0  0  0  0  0
  -13.9330   -8.5442    0.0000 C   0  0  0  0  0  0  0  0  0  0  0  0
  -14.6830   -9.8433    0.0000 C   0  0  0  0  0  0  0  0  0  0  0  0
  -16.1830   -9.8433    0.0000 C   0  0  0  0  0  0  0  0  0  0  0  0
  -16.9330  -11.1423    0.0000 C   0  0  0  0  0  0  0  0  0  0  0  0
  -18.4330  -11.1423    0.0000 C   0  0  0  0  0  0  0  0  0  0  0  0
  -19.1830  -12.4413    0.0000 C   0  0  0  0  0  0  0  0  0  0  0  0
  -20.6830  -12.4413    0.0000 C   0  0  0  0  0  0  0  0  0  0  0  0
  -21.4330  -13.7404    0.0000 C   0  0  0  0  0  0  0  0  0  0  0  0
  -21.4330  -11.1423    0.0000 C   0  0  0  0  0  0  0  0  0  0  0  0
  -22.9330  -11.1423    0.0000 C   0  0  0  0  0  0  0  0  0  0  0  0
  -23.6830   -9.8433    0.0000 C   0  0  0  0  0  0  0  0  0  0  0  0
  -25.1830   -9.8433    0.0000 C   0  0  0  0  0  3  0  0  0  0  0  0
  -25.9330   -8.5442    0.0000 C   0  0  0  0  0  0  0  0  0  0  0  0
  -24.6340   -7.7942    0.0000 C   0  0  0  0  0  0  0  0  0  0  0  0
  -27.2321   -9.2942    0.0000 C   0  0  0  0  0  0  0  0  0  0  0  0
  -26.6830   -7.2452    0.0000 C   0  0  0  0  0  0  0  0  0  0  0  0
  -25.9330   -5.9462    0.0000 C   0  0  0  0  0  0  0  0  0  0  0  0
  -26.6830   -4.6471    0.0000 C   0  0  0  0  0  0  0  0  0  0  0  0
  -25.9330   -3.3481    0.0000 C   0  0  0  0  0  0  0  0  0  0  0  0
  -26.6830   -2.0490    0.0000 C   0  0  0  0  0  0  0  0  0  0  0  0
  -25.9330   -0.7500    0.0000 C   0  0  0  0  0  0  0  0  0  0  0  0
  -26.6830    0.5490    0.0000 C   0  0  0  0  0  3  0  0  0  0  0  0
  -25.9330    1.8481    0.0000 C   0  0  0  0  0  0  0  0  0  0  0  0
  -26.6830    3.1471    0.0000 C   0  0  0  0  0  0  0  0  0  0  0  0
  -25.9330    4.4462    0.0000 C   0  0  0  0  0  0  0  0  0  0  0  0
  -26.6830    5.7452    0.0000 C   0  0  0  0  0  0  0  0  0  0  0  0
  -25.9330    7.0442    0.0000 C   0  0  0  0  0  0  0  0  0  0  0  0
  -26.6830    8.3433    0.0000 C   0  0  0  0  0  3  0  0  0  0  0  0
  -25.9330    9.6423    0.0000 C   0  0  0  0  0  0  0  0  0  0  0  0
  -26.6830   10.9413    0.0000 C   0  0  0  0  0  0  0  0  0  0  0  0
  -25.9330   12.2404    0.0000 C   0  0  0  0  0  0  0  0  0  0  0  0
  -26.6830   13.5394    0.0000 C   0  0  0  0  0  3  0  0  0  0  0  0
  -25.9330   14.8385    0.0000 C   0  0  0  0  0  3  0  0  0  0  0  0
  -26.6830   16.1375    0.0000 C   0  0  0  0  0  0  0  0  0  0  0  0
  -25.9330   17.4365    0.0000 C   0  0  0  0  0  3  0  0  0  0  0  0
  -26.6830   18.7356    0.0000 C   0  0  0  0  0  0  0  0  0  0  0  0
  -25.9330   20.0346    0.0000 C   0  0  0  0  0  0  0  0  0  0  0  0
  -26.6830   21.3336    0.0000 C   0  0  0  0  0  0  0  0  0  0  0  0
  -25.9330   22.6327    0.0000 C   0  0  0  0  0  0  0  0  0  0  0  0
  -26.6830   23.9317    0.0000 C   0  0  0  0  0  0  0  0  0  0  0  0
  -24.4330   22.6327    0.0000 C   0  0  0  0  0  3  0  0  0  0  0  0
  -23.6830   23.9317    0.0000 C   0  0  0  0  0  0  0  0  0  0  0  0
  -22.1830   23.9317    0.0000 C   0  0  0  0  0  0  0  0  0  0  0  0
  -21.4330   25.2308    0.0000 C   0  0  0  0  0  0  0  0  0  0  0  0
  -19.9330   25.2308    0.0000 C   0  0  0  0  0  0  0  0  0  0  0  0
  -19.1830   26.5298    0.0000 C   0  0  0  0  0  0  0  0  0  0  0  0
  -17.6830   26.5298    0.0000 C   0  0  0  0  0  3  0  0  0  0  0  0
  -16.9330   27.8288    0.0000 C   0  0  0  0  0  0  0  0  0  0  0  0
  -15.4330   27.8288    0.0000 C   0  0  0  0  0  0  0  0  0  0  0  0
  -14.6830   29.1279    0.0000 C   0  0  0  0  0  0  0  0  0  0  0  0
  -13.1830   29.1279    0.0000 C   0  0  0  0  0  0  0  0  0  0  0  0
  -15.4330   30.4269    0.0000 C   0  0  0  0  0  3  0  0  0  0  0  0
  -14.6830   31.7260    0.0000 C   0  0  0  0  0  0  0  0  0  0  0  0
  -15.4330   33.0250    0.0000 C   0  0  0  0  0  0  0  0  0  0  0  0
  -14.6830   34.3240    0.0000 C   0  0  0  0  0  3  0  0  0  0  0  0
  -15.4330   35.6231    0.0000 C   0  0  0  0  0  0  0  0  0  0  0  0
  -14.6830   36.9221    0.0000 P   0  0  0  0  0  0  0  0  0  0  0  0
  -15.4330   38.2211    0.0000 C   0  0  0  0  0  0  0  0  0  0  0  0
  -14.6830   39.5202    0.0000 C   0  0  0  0  0  0  0  0  0  0  0  0
  1  2  1  0
  2  3  1  0
  2  4  1  0
  4  5  1  0
  5  6  1  0
  6  7  1  0
  7  8  1  0
  7  9  1  0
  9 10  1  0
 10 11  1  0
 11 12  1  0
 12 13  1  0
 12 14  1  0
 14 15  1  0
 15 16  1  0
 17 16  1  1
 17 18  1  0
 18 19  1  0
 19 20  1  0
 20 21  1  0
 20 22  1  0
 22 23  1  0
 23 24  1  0
 24 25  1  0
 25 26  1  0
 26 27  1  0
 27 28  1  0
 17 29  1  0
 29 30  1  0
 30 31  1  0
 31 32  1  0
 32 33  1  0
 33 34  1  0
 34 35  1  0
 35 36  1  0
 36 37  1  0
 37 38  1  0
 38 39  1  0
 39 40  1  0
 40 41  1  0
 41 42  1  0
 42 43  1  0
 43 44  1  0
 44 45  1  0
 45 46  1  0
 46 47  1  0
 47 48  1  0
 48 49  1  0
 49 50  1  0
 50 51  1  0
 51 52  1  0
 52 53  1  0
 53 54  1  0
 54 55  1  0
 54 56  1  0
 56 57  1  0
 57 58  1  0
 58 59  1  0
 59 60  1  0
 60 61  1  0
 60 62  1  0
 60 63  1  0
 63 64  1  0
 64 65  1  0
 65 66  1  0
 66 67  1  0
 67 68  1  0
 68 69  1  0
 69 70  1  0
 70 71  1  0
 71 72  1  0
 72 73  1  0
 73 74  1  0
 74 75  1  0
 75 76  1  0
 76 77  1  0
 77 78  1  0
 78 79  1  0
 79 80  1  0
 80 81  1  0
 81 82  1  0
 82 83  1  0
 83 84  1  0
 84 85  1  0
 85 86  1  0
 86 87  1  0
 86 88  1  0
 88 89  1  0
 89 90  1  0
 90 91  1  0
 91 92  1  0
 92 93  1  0
 93 94  1  0
 94 95  1  0
 95 96  1  0
 96 97  1  0
 97 98  1  1
 97 99  1  0
 99100  1  0
100101  1  0
101102  1  0
102103  1  0
103104  1  0
104105  1  0
105106  1  0
 36 34  1  0
M  RAD  8   9   2  12   2  14   2  22   2  27   2  35   2  43   2  46   2
M  RAD  8  59   2  69   2  75   2  79   2  80   2  82   2  88   2  94   2
M  RAD  2  99   2 102   2
M  END
$$$$
