
     RDKit          3D

 61 64  0  0  0  0  0  0  0  0999 V2000
   -1.7803    1.0392   -1.8314 C   0  0  0  0  0  0  0  0  0  0  0  0
   -0.6339    0.2092   -2.3462 C   0  0  0  0  0  0  0  0  0  0  0  0
   -0.3855    0.6043   -3.8001 C   0  0  0  0  0  0  0  0  0  0  0  0
   -0.9204   -1.2727   -2.2396 C   0  0  0  0  0  0  0  0  0  0  0  0
    0.4111   -2.0046   -2.1952 C   0  0  0  0  0  0  0  0  0  0  0  0
    0.8863   -1.9699   -0.7526 C   0  0  0  0  0  0  0  0  0  0  0  0
    0.0276   -2.8666    0.1153 C   0  0  1  0  0  0  0  0  0  0  0  0
   -0.6849   -3.8374   -0.8360 C   0  0  0  0  0  0  0  0  0  0  0  0
    0.8800   -3.6668    1.0675 C   0  0  0  0  0  3  0  0  0  0  0  0
   -0.0367   -4.4772    1.9597 C   0  0  0  0  0  0  0  0  0  0  0  0
   -1.3672   -4.7200    1.2931 C   0  0  0  0  0  0  0  0  0  0  0  0
   -2.4884   -4.1442    2.1079 C   0  0  2  0  0  0  0  0  0  0  0  0
   -3.6178   -5.1495    2.2026 C   0  0  0  0  0  0  0  0  0  0  0  0
   -4.1145   -5.4624    0.7855 C   0  0  0  0  0  3  0  0  0  0  0  0
   -5.2484   -6.4679    0.8718 C   0  0  0  0  0  0  0  0  0  0  0  0
   -2.9488   -2.8411    1.4714 C   0  0  0  0  0  0  0  0  0  0  0  0
   -3.3539   -1.8331    2.4921 C   0  0  1  0  0  0  0  0  0  0  0  0
   -3.4322   -2.3630    3.8878 C   0  0  0  0  0  0  0  0  0  0  0  0
   -2.6252   -0.5255    2.3721 C   0  0  0  0  0  0  0  0  0  0  0  0
   -3.4546    0.4723    1.5453 C   0  0  0  0  0  0  0  0  0  0  0  0
   -4.8911    0.0012    1.6844 C   0  0  0  0  0  0  0  0  0  0  0  0
   -5.8951    1.0869    1.5803 C   0  0  0  0  0  0  0  0  0  0  0  0
   -5.8145    1.9765    0.4218 C   0  0  0  0  0  3  0  0  0  0  0  0
   -4.6738    1.8156   -0.4998 C   0  0  1  0  0  0  0  0  0  0  0  0
   -4.1823    0.5560   -0.6682 O   0  0  0  0  0  0  0  0  0  0  0  0
   -5.0446    2.3734   -1.8571 C   0  0  0  0  0  0  0  0  0  0  0  0
   -5.3981    3.8360   -1.7981 C   0  0  0  0  0  3  0  0  0  0  0  0
   -6.5912    4.0831   -0.8906 C   0  0  0  0  0  0  0  0  0  0  0  0
   -3.0720    0.2513    0.1129 C   0  0  1  0  0  0  0  0  0  0  0  0
   -1.8158    0.8988   -0.3232 C   0  0  0  0  0  0  0  0  0  0  0  0
   -1.5155    2.2295    0.2737 C   0  0  1  0  0  0  0  0  0  0  0  0
   -2.5433    2.7163    1.2514 C   0  0  0  0  0  0  0  0  0  0  0  0
   -2.1127    4.0724    1.7649 C   0  0  0  0  0  0  0  0  0  0  0  0
   -1.9916    5.0988    0.6357 C   0  0  0  0  0  0  0  0  0  0  0  0
   -0.1257    2.2166    0.9146 C   0  0  0  0  0  0  0  0  0  0  0  0
    0.8373    1.5554   -0.0460 C   0  0  0  0  0  0  0  0  0  0  0  0
    0.6656    2.0020   -1.4651 C   0  0  0  0  0  3  0  0  0  0  0  0
   -0.3872    2.9517   -1.6466 N   0  0  0  0  0  0  0  0  0  0  0  0
   -1.5268    2.4175   -2.2244 N   0  0  0  0  0  2  0  0  0  0  0  0
    0.3766    3.5843    1.2254 C   0  0  0  0  0  0  0  0  0  0  0  0
    1.5561    3.9904    0.3719 C   0  0  1  0  0  0  0  0  0  0  0  0
    1.4967    5.4832    0.0876 C   0  0  0  0  0  2  0  0  0  0  0  0
    2.8592    3.6040    1.0548 C   0  0  0  0  0  0  0  0  0  0  0  0
    3.5450    2.5036    0.3116 C   0  0  0  0  0  0  0  0  0  0  0  0
    5.0106    2.8120    0.2120 C   0  0  1  0  0  0  0  0  0  0  0  0
    5.6038    3.1947    1.5648 C   0  0  0  0  0  0  0  0  0  0  0  0
    5.4250    2.0828    2.5015 N   0  0  0  0  0  0  0  0  0  0  0  0
    5.9902    2.4794    3.7766 C   0  0  0  0  0  0  0  0  0  0  0  0
    7.4925    2.6153    3.7329 C   0  0  0  0  0  2  0  0  0  0  0  0
    5.7885    1.7345   -0.4778 C   0  0  0  0  0  0  0  0  0  0  0  0
    4.9102    0.7429   -1.2156 C   0  0  0  0  0  3  0  0  0  0  0  0
    5.1002   -0.5910   -0.5714 C   0  0  0  0  0  0  0  0  0  0  0  0
    4.5045   -1.7268   -1.3460 C   0  0  0  0  0  0  0  0  0  0  0  0
    5.2407   -2.1057   -2.5754 C   0  0  0  0  0  0  0  0  0  0  0  0
    6.6535   -2.5328   -2.2260 C   0  0  0  0  0  0  0  0  0  0  0  0
    7.3071   -2.9016   -3.4760 N   0  0  0  0  0  0  0  0  0  0  0  0
    3.0383   -1.5744   -1.6415 C   0  0  0  0  0  0  0  0  0  0  0  0
    2.2888   -2.3347   -0.6527 N   0  0  0  0  0  0  0  0  0  0  0  0
    2.4858   -3.7568   -0.7675 C   0  0  0  0  0  0  0  0  0  0  0  0
    1.8802   -4.3607   -2.0034 C   0  0  0  0  0  0  0  0  0  0  0  0
    2.4125   -3.8049   -3.2774 C   0  0  0  0  0  2  0  0  0  0  0  0
  1  2  1  0
  2  3  1  0
  2  4  1  0
  4  5  1  0
  5  6  1  0
  6  7  1  0
  7  8  1  6
  7  9  1  0
  9 10  1  0
 10 11  1  0
 11 12  1  0
 12 13  1  6
 13 14  1  0
 14 15  1  0
 12 16  1  0
 16 17  1  0
 17 18  1  1
 17 19  1  0
 19 20  1  0
 20 21  1  0
 21 22  1  0
 22 23  1  0
 23 24  1  0
 24 25  1  0
 24 26  1  6
 26 27  1  0
 27 28  1  0
 20 29  1  0
 29 30  1  0
 30 31  1  0
 31 32  1  1
 32 33  1  0
 33 34  1  0
 31 35  1  0
 35 36  1  0
 36 37  1  0
 37 38  1  0
 38 39  1  0
 35 40  1  0
 40 41  1  0
 41 42  1  1
 41 43  1  0
 43 44  1  0
 44 45  1  0
 45 46  1  1
 46 47  1  0
 47 48  1  0
 48 49  1  0
 45 50  1  0
 50 51  1  0
 51 52  1  0
 52 53  1  0
 53 54  1  0
 54 55  1  0
 55 56  1  0
 53 57  1  0
 57 58  1  0
 58 59  1  0
 59 60  1  0
 60 61  1  0
 30  1  1  0
 39  1  1  0
 58  6  1  0
 29 25  1  6
M  RAD  8   9   2  14   2  23   2  27   2  37   2  39   3  42   3  49   3
M  CHG  1  39   1
M  RAD  2  51   2  61   3
M  END
$$$$
