
     RDKit          3D

 59 61  0  0  0  0  0  0  0  0999 V2000
    1.5281   -0.2934   -0.6447 C   0  0  0  0  0  0  0  0  0  0  0  0
    2.3416    0.6182   -1.2595 O   0  0  0  0  0  0  0  0  0  0  0  0
    1.5253    1.6233   -1.7793 C   0  0  0  0  0  3  0  0  0  0  0  0
    1.2424    1.2687   -3.0923 O   0  0  0  0  0  0  0  0  0  0  0  0
    0.3126    0.2489   -3.1886 C   0  0  2  0  0  0  0  0  0  0  0  0
   -0.5422    0.5484   -4.4041 C   0  0  0  0  0  0  0  0  0  0  0  0
    0.2875    0.6056   -5.6674 C   0  0  0  0  0  2  0  0  0  0  0  0
   -0.5545    0.1707   -1.9979 C   0  0  1  0  0  0  0  0  0  0  0  0
   -1.8099   -0.5947   -2.1288 C   0  0  0  0  0  3  0  0  0  0  0  0
   -1.6625   -2.0228   -2.4856 C   0  0  0  0  0  0  0  0  0  0  0  0
   -2.9424   -2.7751   -2.6128 C   0  0  0  0  0  0  0  0  0  0  0  0
   -4.0873   -2.1523   -3.8647 S   0  0  0  0  0  0  0  0  0  0  0  0
   -4.1113   -1.7110   -2.1866 O   0  0  0  0  0  0  0  0  0  0  0  0
    0.0815   -0.0493   -0.6898 C   0  0  2  0  0  0  0  0  0  0  0  0
   -0.2529    0.9974    0.1703 O   0  0  0  0  0  0  0  0  0  0  0  0
   -1.5547    0.8691    0.6518 C   0  0  0  0  0  3  0  0  0  0  0  0
   -2.4981    1.3286   -0.2640 O   0  0  0  0  0  0  0  0  0  0  0  0
   -3.4822    2.1079    0.3249 C   0  0  0  0  0  3  0  0  0  0  0  0
   -4.3675    1.3406    1.2565 C   0  0  1  0  0  0  0  0  0  0  0  0
   -5.5835    0.7936    0.5285 C   0  0  0  0  0  3  0  0  0  0  0  0
   -6.3062    1.8462   -0.0087 O   0  0  0  0  0  0  0  0  0  0  0  0
   -7.1569    2.3034    0.8611 O   0  0  0  0  0  0  0  0  0  0  0  0
   -6.6405    3.3101    1.6720 C   0  0  0  0  0  3  0  0  0  0  0  0
   -6.0076    4.3020    0.9322 O   0  0  0  0  0  0  0  0  0  0  0  0
   -5.7973    5.4143    1.7327 C   0  0  0  0  0  3  0  0  0  0  0  0
   -6.5657    6.4944    1.2175 O   0  0  0  0  0  0  0  0  0  0  0  0
   -7.3537    6.3547    0.1045 C   0  0  0  0  0  0  0  0  0  0  0  0
   -7.4111    5.2567   -0.4875 O   0  0  0  0  0  0  0  0  0  0  0  0
   -3.6728    0.3347    1.9114 O   0  0  0  0  0  0  0  0  0  0  0  0
   -4.0159   -1.1654    1.1384 S   0  0  0  0  0  0  0  0  0  0  0  0
   -3.9373   -2.3993    2.3309 O   0  0  0  0  0  0  0  0  0  0  0  0
   -5.1599   -3.5565    2.0362 S   0  0  0  0  0  0  0  0  0  0  0  0
   -4.6055   -5.1528    2.2367 O   0  0  0  0  0  0  0  0  0  0  0  0
   -3.2193   -5.1919    2.3071 C   0  0  0  0  0  3  0  0  0  0  0  0
   -2.8215   -4.9408    3.6239 O   0  0  0  0  0  0  0  0  0  0  0  0
   -1.8739   -3.9163    3.6450 C   0  0  0  0  0  3  0  0  0  0  0  0
   -0.9476   -4.0418    2.4296 C   0  0  0  0  0  0  0  0  0  0  0  0
    0.3608   -4.6053    2.9446 C   0  0  0  0  0  3  0  0  0  0  0  0
    1.5436   -4.0964    2.1698 C   0  0  1  0  0  0  0  0  0  0  0  0
    2.4688   -5.1045    2.0374 O   0  0  0  0  0  0  0  0  0  0  0  0
    1.1429   -3.4687    0.8553 C   0  0  0  0  0  3  0  0  0  0  0  0
    0.8043   -4.4904   -0.1966 C   0  0  0  0  0  3  0  0  0  0  0  0
    1.2853   -3.9665   -1.8476 S   0  0  0  0  0  0  0  0  0  0  0  0
    1.5526   -2.2942   -1.9815 O   0  0  0  0  0  0  0  0  0  0  0  0
    1.9604   -1.7168   -0.7851 C   0  0  1  0  0  0  0  0  0  0  0  0
    3.4839   -1.7392   -0.7944 C   0  0  2  0  0  0  0  0  0  0  0  0
    3.8510   -3.0823   -0.8964 O   0  0  0  0  0  0  0  0  0  0  0  0
    4.1733   -1.1158    0.7518 S   0  0  0  0  0  0  0  0  0  0  0  0
    3.8165    0.5499    0.9190 O   0  0  0  0  0  0  0  0  0  0  0  0
    5.1281    1.5218    0.3604 S   0  0  0  0  0  0  0  0  0  0  0  0
    5.8902    0.7280   -0.9515 O   0  0  0  0  0  0  0  0  0  0  0  0
    7.0605    1.4151   -1.2664 C   0  0  0  0  0  3  0  0  0  0  0  0
    8.1435    0.9327   -0.3235 C   0  0  0  0  0  3  0  0  0  0  0  0
    8.5142    1.9129    0.5825 O   0  0  0  0  0  0  0  0  0  0  0  0
   10.2170    2.0823    0.5267 S   0  0  0  0  0  0  0  0  0  0  0  0
   10.6058    3.7840    0.0629 C   0  0  0  0  0  3  0  0  0  0  0  0
    9.3291    4.5940   -0.1453 C   0  0  0  0  0  3  0  0  0  0  0  0
    8.5834    4.7349    1.1491 C   0  0  0  0  0  3  0  0  0  0  0  0
    9.7072    5.2505    2.4798 S   0  0  0  0  0  0  0  0  0  0  0  0
  1  2  1  0
  2  3  1  0
  3  4  1  0
  4  5  1  0
  5  6  1  6
  6  7  1  0
  5  8  1  0
  8  9  1  6
  9 10  1  0
 10 11  1  0
 11 12  1  0
 11 13  1  0
  8 14  1  0
 14 15  1  1
 15 16  1  0
 16 17  1  0
 17 18  1  0
 18 19  1  0
 19 20  1  6
 20 21  1  0
 21 22  1  0
 22 23  1  0
 23 24  1  0
 24 25  1  0
 25 26  1  0
 26 27  1  0
 27 28  2  0
 19 29  1  0
 29 30  1  0
 30 31  1  0
 31 32  1  0
 32 33  1  0
 33 34  1  0
 34 35  1  0
 35 36  1  0
 36 37  1  0
 37 38  1  0
 38 39  1  0
 39 40  1  6
 39 41  1  0
 41 42  1  0
 42 43  1  0
 43 44  1  0
 45 44  1  6
 45 46  1  0
 46 47  1  1
 46 48  1  0
 48 49  1  0
 49 50  1  0
 50 51  1  0
 51 52  1  0
 52 53  1  0
 53 54  1  0
 54 55  1  0
 55 56  1  0
 56 57  1  0
 57 58  1  0
 58 59  1  0
 14  1  1  0
 45  1  1  0
 13 12  1  0
M  RAD  8   3   2   7   3   9   2  16   2  18   2  20   2  23   2  25   2
M  RAD  8  34   2  36   2  38   2  41   2  42   2  52   2  53   2  56   2
M  RAD  2  57   2  58   2
M  END
$$$$
