
     RDKit          3D

 25 25  0  0  0  0  0  0  0  0999 V2000
   -4.7943   -0.7342   -3.6645 C   0  0  0  0  0  0  0  0  0  0  0  0
   -4.3730    0.1531   -2.6106 N   0  0  0  0  0  3  0  0  0  0  0  0
   -5.1210   -0.1818   -1.3998 C   0  0  0  0  0  0  0  0  0  0  0  0
   -2.9669   -0.0634   -2.2743 C   0  0  0  0  0  0  0  0  0  0  0  0
   -2.6806    0.8069   -1.0795 C   0  0  0  0  0  3  0  0  0  0  0  0
   -1.4634    0.3829   -0.3110 C   0  0  0  0  0  3  0  0  0  0  0  0
   -1.2759   -1.1074   -0.2582 C   0  0  0  0  0  0  0  0  0  0  0  0
   -2.1665   -1.7303    0.7901 C   0  0  0  0  0  3  0  0  0  0  0  0
   -2.6891   -0.6761    1.7246 C   0  0  0  0  0  0  0  0  0  0  0  0
   -0.2149    1.1335   -0.6991 C   0  0  0  0  0  3  0  0  0  0  0  0
    0.9416    0.3915   -0.0585 C   0  0  2  0  0  0  0  0  0  0  0  0
    1.2679   -0.7856   -0.9678 C   0  0  0  0  0  0  0  0  0  0  0  0
    1.7810   -0.2452   -2.2744 C   0  0  0  0  0  0  0  0  0  0  0  0
    2.9510    0.6677   -1.9590 C   0  0  0  0  0  0  0  0  0  0  0  0
    4.2393   -0.0166   -2.7025 C   0  0  0  0  0  3  0  0  0  0  0  0
    5.2914    0.4737   -1.7290 N   0  0  0  0  0  0  0  0  0  0  0  0
    5.3074   -0.2150   -0.6285 C   0  0  0  0  0  0  0  0  0  0  0  0
    6.3282    0.3691    0.2948 N   0  0  0  0  0  2  0  0  0  0  0  0
    7.6076    0.3480    0.0479 C   0  0  0  0  0  2  0  0  0  0  0  0
    0.4780   -0.1996    1.2593 C   0  0  0  0  0  3  0  0  0  0  0  0
   -0.5824    0.6756    1.8794 C   0  0  0  0  0  3  0  0  0  0  0  0
   -1.6064   -0.1472    2.6666 C   0  0  1  0  0  0  0  0  0  0  0  0
   -2.2904    0.7839    3.5034 O   0  0  0  0  0  0  0  0  0  0  0  0
   -2.4227    0.5888    4.8512 N   0  0  0  0  0  3  0  0  0  0  0  0
   -1.5460    0.0660    5.5994 N   0  0  0  0  0  2  0  0  0  0  0  0
  1  2  1  0
  2  3  1  0
  2  4  1  0
  4  5  1  0
  5  6  1  0
  6  7  1  0
  7  8  1  0
  8  9  1  0
  6 10  1  0
 10 11  1  0
 11 12  1  6
 12 13  1  0
 13 14  1  0
 14 15  1  0
 15 16  1  0
 16 17  2  3
 17 18  1  0
 18 19  1  0
 11 20  1  0
 20 21  1  0
 21 22  1  0
 22 23  1  1
 23 24  1  0
 24 25  2  0
 22  9  1  0
M  RAD  8   2   2   5   2   6   2   8   2  10   2  15   2  18   3  19   3
M  CHG  4   2   1  18   1  24   1  25  -1
M  RAD  3  20   2  21   2  24   2
M  END
$$$$
