
     RDKit          3D

  7  6  0  0  0  0  0  0  0  0999 V2000
    0.4566    0.8350   -0.8549 C   0  0  0  0  0  0  0  0  0  0  0  0
    0.3455    0.0838    0.4585 C   0  0  2  0  0  0  0  0  0  0  0  0
    1.6141   -0.7058    0.6855 C   0  0  0  0  0  0  0  0  0  0  0  0
    2.7477    0.2992    0.7277 C   0  0  0  0  0  0  0  0  0  0  0  0
   -0.8344   -0.8744    0.3541 C   0  0  0  0  0  0  0  0  0  0  0  0
   -2.0338   -0.0326    0.0952 C   0  0  0  0  0  0  0  0  0  0  0  0
   -2.2958    0.3948   -1.0257 O   0  0  0  0  0  0  0  0  0  0  0  0
  2  1  1  6
  2  3  1  0
  3  4  1  0
  2  5  1  0
  5  6  1  0
  6  7  2  0
M  END
$$$$
