
     RDKit          3D

 13 14  0  0  0  0  0  0  0  0999 V2000
    2.2176    0.2074    0.4701 N   0  0  0  0  0  3  0  0  0  0  0  0
    1.5422   -0.6991   -0.1237 N   0  0  0  0  0  3  0  0  0  0  0  0
    1.3107   -1.8762    0.5418 O   0  0  0  0  0  0  0  0  0  0  0  0
    0.0642   -2.4552    0.5792 N   0  0  0  0  0  3  0  0  0  0  0  0
   -0.7468   -2.1182   -0.3371 C   0  0  0  0  0  0  0  0  0  0  0  0
   -1.4130   -1.0290   -0.2569 C   0  0  0  0  0  0  0  0  0  0  0  0
   -2.5538   -0.3010    0.1574 N   0  0  0  0  0  0  0  0  0  0  0  0
   -2.3847    0.4762   -0.9592 O   0  0  0  0  0  0  0  0  0  0  0  0
   -1.0066    0.2929   -0.7895 C   0  0  1  0  0  0  0  0  0  0  0  0
   -0.5204    1.1443    0.3447 C   0  0  0  0  0  0  0  0  0  0  0  0
    0.0305    2.3393   -0.0331 O   0  0  0  0  0  0  0  0  0  0  0  0
    0.9257    2.2742   -1.0692 C   0  0  0  0  0  0  0  0  0  0  0  0
    2.5344    1.7444   -0.3665 S   0  0  0  0  0  0  0  0  0  0  0  0
  1  2  2  3
  2  3  1  0
  3  4  1  0
  4  5  2  0
  5  6  2  0
  6  7  1  0
  7  8  1  0
  8  9  1  0
  9 10  1  1
 10 11  1  0
 11 12  1  0
 12 13  1  0
 13  1  1  0
  9  6  1  0
M  CHG  3   1   1   2   1   4   1
M  RAD  3   1   2   2   2   4   2
M  END
$$$$
