
     RDKit          2D

 83 84  0  0  0  0  0  0  0  0999 V2000
    9.8839   -6.4952    0.0000 C   0  0  0  0  0  0  0  0  0  0  0  0
    9.1339   -5.1962    0.0000 O   0  0  0  0  0  0  0  0  0  0  0  0
    7.6339   -5.1962    0.0000 C   0  0  0  0  0  3  0  0  0  0  0  0
    6.8839   -3.8971    0.0000 O   0  0  0  0  0  0  0  0  0  0  0  0
    5.3839   -3.8971    0.0000 C   0  0  0  0  0  0  0  0  0  0  0  0
    4.6339   -5.1962    0.0000 C   0  0  0  0  0  0  0  0  0  0  0  0
    4.6339   -2.5981    0.0000 O   0  0  0  0  0  0  0  0  0  0  0  0
    5.3839   -1.2990    0.0000 C   0  0  0  0  0  0  0  0  0  0  0  0
    6.8839   -1.2990    0.0000 O   0  0  0  0  0  0  0  0  0  0  0  0
    7.6339   -2.5981    0.0000 C   0  0  0  0  0  2  0  0  0  0  0  0
    4.6339    0.0000    0.0000 C   0  0  0  0  0  3  0  0  0  0  0  0
    3.1339    0.0000    0.0000 C   0  0  0  0  0  0  0  0  0  0  0  0
    2.7750    1.4564    0.0000 C   0  0  0  0  0  0  0  0  0  0  0  0
    1.7803    2.5792    0.0000 O   0  0  0  0  0  0  0  0  0  0  0  0
    0.3778    3.1111    0.0000 C   0  0  0  0  0  0  0  0  0  0  0  0
    0.5586    4.6001    0.0000 C   0  0  0  0  0  0  0  0  0  0  0  0
    2.7750   -1.4564    0.0000 C   0  0  0  0  0  0  0  0  0  0  0  0
    1.7803   -2.5792    0.0000 C   0  0  0  0  0  3  0  0  0  0  0  0
    0.3778   -3.1111    0.0000 O   0  0  0  0  0  0  0  0  0  0  0  0
   -1.1113   -2.9303    0.0000 C   0  0  0  0  0  3  0  0  0  0  0  0
   -2.3458   -2.0782    0.0000 O   0  0  0  0  0  0  0  0  0  0  0  0
   -3.0429   -0.7500    0.0000 C   0  0  0  0  0  3  0  0  0  0  0  0
   -3.0429    0.7500    0.0000 C   0  0  0  0  0  0  0  0  0  0  0  0
   -2.3458    2.0782    0.0000 O   0  0  0  0  0  0  0  0  0  0  0  0
   -1.1113    2.9303    0.0000 S   0  0  0  0  0  0  0  0  0  0  0  0
   -1.6432    4.3328    0.0000 C   0  0  0  0  0  3  0  0  0  0  0  0
   -3.1238    4.5734    0.0000 C   0  0  0  0  0  3  0  0  0  0  0  0
   -3.6557    5.9759    0.0000 C   0  0  0  0  0  3  0  0  0  0  0  0
   -5.1363    6.2166    0.0000 C   0  0  0  0  0  3  0  0  0  0  0  0
   -5.6682    7.6191    0.0000 C   0  0  0  0  0  0  0  0  0  0  0  0
   -4.7195    8.7810    0.0000 C   0  0  0  0  0  0  0  0  0  0  0  0
   -5.2514   10.1835    0.0000 O   0  0  0  0  0  0  0  0  0  0  0  0
   -7.1488    7.8597    0.0000 C   0  0  0  0  0  3  0  0  0  0  0  0
   -7.6807    9.2622    0.0000 C   0  0  0  0  0  3  0  0  0  0  0  0
   -9.1612    9.5028    0.0000 O   0  0  0  0  0  0  0  0  0  0  0  0
   -9.6931   10.9054    0.0000 O   0  0  0  0  0  0  0  0  0  0  0  0
  -11.1737   11.1460    0.0000 C   0  0  0  0  0  3  0  0  0  0  0  0
  -11.7056   12.5485    0.0000 C   0  0  0  0  0  3  0  0  0  0  0  0
  -13.1862   12.7891    0.0000 C   0  0  0  0  0  3  0  0  0  0  0  0
  -13.7181   14.1917    0.0000 O   0  0  0  0  0  0  0  0  0  0  0  0
  -15.1987   14.4323    0.0000 C   0  0  0  0  0  3  0  0  0  0  0  0
  -15.7306   15.8348    0.0000 C   0  0  0  0  0  0  0  0  0  0  0  0
  -14.7819   16.9967    0.0000 C   0  0  0  0  0  0  0  0  0  0  0  0
  -15.3138   18.3992    0.0000 C   0  0  0  0  0  2  0  0  0  0  0  0
  -17.2112   16.0754    0.0000 C   0  0  0  0  0  2  0  0  0  0  0  0
   -4.4993    1.1090    0.0000 C   0  0  0  0  0  3  0  0  0  0  0  0
   -4.9166    2.5498    0.0000 O   0  0  0  0  0  0  0  0  0  0  0  0
   -6.3730    2.9087    0.0000 O   0  0  0  0  0  0  0  0  0  0  0  0
   -6.7903    4.3495    0.0000 C   0  0  0  0  0  3  0  0  0  0  0  0
   -8.2468    4.7085    0.0000 O   0  0  0  0  0  0  0  0  0  0  0  0
   -8.6641    6.1493    0.0000 C   0  0  0  0  0  0  0  0  0  0  0  0
  -10.1205    6.5082    0.0000 C   0  0  0  0  0  0  0  0  0  0  0  0
  -11.1596    5.4264    0.0000 O   0  0  0  0  0  0  0  0  0  0  0  0
  -12.6160    5.7854    0.0000 C   0  0  0  0  0  3  0  0  0  0  0  0
  -13.6551    4.7036    0.0000 C   0  0  0  0  0  0  0  0  0  0  0  0
  -13.2378    3.2628    0.0000 O   0  0  0  0  0  0  0  0  0  0  0  0
  -15.1115    5.0626    0.0000 C   0  0  0  0  0  3  0  0  0  0  0  0
  -16.1506    3.9808    0.0000 O   0  0  0  0  0  0  0  0  0  0  0  0
  -17.6070    4.3397    0.0000 O   0  0  0  0  0  0  0  0  0  0  0  0
  -18.6461    3.2579    0.0000 C   0  0  0  0  0  3  0  0  0  0  0  0
  -20.1025    3.6169    0.0000 O   0  0  0  0  0  0  0  0  0  0  0  0
  -21.1416    2.5351    0.0000 C   0  0  0  0  0  2  0  0  0  0  0  0
  -10.5378    7.9490    0.0000 C   0  0  0  0  0  3  0  0  0  0  0  0
  -11.9942    8.3080    0.0000 O   0  0  0  0  0  0  0  0  0  0  0  0
  -12.4116    9.7488    0.0000 S   0  0  0  0  0  0  0  0  0  0  0  0
  -13.8680   10.1077    0.0000 C   0  0  0  0  0  0  0  0  0  0  0  0
  -14.2853   11.5485    0.0000 O   0  0  0  0  0  0  0  0  0  0  0  0
  -15.7417   11.9075    0.0000 C   0  0  0  0  0  3  0  0  0  0  0  0
  -16.7808   10.8257    0.0000 C   0  0  0  0  0  0  0  0  0  0  0  0
  -16.3635    9.3849    0.0000 C   0  0  0  0  0  0  0  0  0  0  0  0
  -15.2817    8.3458    0.0000 C   0  0  0  0  0  3  0  0  0  0  0  0
  -16.7224    7.9285    0.0000 O   0  0  0  0  0  0  0  0  0  0  0  0
  -18.2372   11.1846    0.0000 S   0  0  0  0  0  0  0  0  0  0  0  0
  -19.2763   10.1028    0.0000 O   0  0  0  0  0  0  0  0  0  0  0  0
  -20.7327   10.4618    0.0000 C   0  0  0  0  0  3  0  0  0  0  0  0
  -21.7718    9.3800    0.0000 C   0  0  0  0  0  3  0  0  0  0  0  0
  -23.2282    9.7390    0.0000 C   0  0  0  0  0  3  0  0  0  0  0  0
  -24.2673    8.6572    0.0000 C   0  0  0  0  0  3  0  0  0  0  0  0
  -25.7237    9.0162    0.0000 O   0  0  0  0  0  0  0  0  0  0  0  0
  -26.7628    7.9344    0.0000 O   0  0  0  0  0  0  0  0  0  0  0  0
  -28.2192    8.2933    0.0000 C   0  0  0  0  0  3  0  0  0  0  0  0
  -29.2583    7.2115    0.0000 C   0  0  0  0  0  3  0  0  0  0  0  0
  -30.7147    7.5705    0.0000 C   0  0  0  0  0  2  0  0  0  0  0  0
  1  2  1  0
  2  3  1  0
  3  4  1  0
  4  5  1  0
  5  6  1  6
  5  7  1  0
  7  8  1  0
  8  9  1  0
  9 10  1  0
  8 11  1  6
 12 11  1  1
 12 13  1  0
 13 14  1  0
 14 15  1  0
 15 16  1  1
 12 17  1  0
 17 18  1  0
 18 19  1  0
 19 20  1  0
 20 21  1  0
 21 22  1  0
 22 23  1  0
 23 24  1  0
 24 25  1  0
 25 26  1  0
 26 27  1  0
 27 28  1  0
 28 29  1  0
 30 29  1  6
 30 31  1  0
 31 32  1  0
 30 33  1  0
 33 34  1  0
 34 35  1  0
 35 36  1  0
 36 37  1  0
 37 38  1  0
 38 39  1  0
 39 40  1  0
 40 41  1  0
 41 42  1  0
 42 43  1  0
 43 44  1  0
 42 45  1  1
 23 46  1  1
 46 47  1  0
 47 48  1  0
 48 49  1  0
 49 50  1  0
 50 51  1  0
 52 51  1  6
 52 53  1  0
 53 54  1  0
 54 55  1  0
 55 56  1  6
 55 57  1  0
 57 58  1  0
 58 59  1  0
 59 60  1  0
 60 61  1  0
 61 62  1  0
 52 63  1  0
 63 64  1  0
 64 65  1  0
 65 66  1  0
 66 67  1  0
 67 68  1  0
 69 68  1  1
 69 70  1  0
 70 71  1  1
 70 72  1  0
 69 73  1  0
 73 74  1  0
 74 75  1  0
 75 76  1  0
 76 77  1  0
 77 78  1  0
 78 79  1  0
 79 80  1  0
 80 81  1  0
 81 82  1  0
 82 83  1  0
 25 15  1  0
 72 71  1  0
M  RAD  8   3   2  10   3  11   2  18   2  20   2  22   2  26   2  27   2
M  RAD  8  28   2  29   2  33   2  34   2  37   2  38   2  39   2  41   2
M  RAD  8  44   3  45   3  46   2  49   2  54   2  57   2  60   2  62   3
M  RAD  8  63   2  68   2  71   2  75   2  76   2  77   2  78   2  81   2
M  RAD  2  82   2  83   3
M  END
$$$$
