
     RDKit          3D

  5  4  0  0  0  0  0  0  0  0999 V2000
    2.3589   -0.4146   -0.1887 Br  0  0  0  0  0  0  0  0  0  0  0  0
    0.7485    0.5581   -0.3559 N   0  0  0  0  0  2  0  0  0  0  0  0
   -0.0356    0.3081    0.7064 O   0  0  0  0  0  0  0  0  0  0  0  0
   -1.1232   -0.4978    0.3935 C   0  0  0  0  0  0  0  0  0  0  0  0
   -1.9486    0.0462   -0.5552 F   0  0  0  0  0  0  0  0  0  0  0  0
  1  2  1  0
  2  3  1  0
  3  4  1  0
  4  5  1  0
M  CHG  1   2   1
M  RAD  1   2   3
M  END
$$$$
