
     RDKit          3D

  7  6  0  0  0  0  0  0  0  0999 V2000
   -1.0441   -1.1053   -0.8403 O   0  0  0  0  0  0  0  0  0  0  0  0
   -0.6022   -0.0113   -0.0768 C   0  0  0  0  0  0  0  0  0  0  0  0
   -1.2942   -0.0515    1.2736 C   0  0  0  0  0  0  0  0  0  0  0  0
   -1.0478    1.2638   -0.7525 C   0  0  0  0  0  0  0  0  0  0  0  0
    0.8636   -0.0711    0.0529 C   0  0  0  0  0  0  0  0  0  0  0  0
    1.5871   -0.9704   -0.4497 O   0  0  0  0  0  0  0  0  0  0  0  0
    1.5376    0.9458    0.7928 N   0  0  0  0  0  0  0  0  0  0  0  0
  1  2  1  0
  2  3  1  0
  2  4  1  0
  2  5  1  0
  5  6  2  0
  5  7  1  0
M  END
$$$$
