
     RDKit          3D

 12 11  0  0  0  0  0  0  0  0999 V2000
    4.5699   -0.1634    0.2343 O   0  0  0  0  0  0  0  0  0  0  0  0
    3.3757   -0.8301    0.5622 C   0  0  0  0  0  0  0  0  0  0  0  0
    2.2869   -0.2691   -0.3248 C   0  0  0  0  0  3  0  0  0  0  0  0
    1.6319    0.8641    0.2957 N   0  0  0  0  0  0  0  0  0  0  0  0
    0.2605    0.4929    0.5896 C   0  0  2  0  0  0  0  0  0  0  0  0
    0.3297   -0.6525    1.5844 C   0  0  0  0  0  0  0  0  0  0  0  0
   -0.3127    0.0340   -0.5750 O   0  0  0  0  0  0  0  0  0  0  0  0
   -1.6166   -0.3644   -0.4917 C   0  0  1  0  0  0  0  0  0  0  0  0
   -1.7329   -1.4040    0.4221 O   0  0  0  0  0  0  0  0  0  0  0  0
   -2.5746    0.7450   -0.1922 C   0  0  2  0  0  0  0  0  0  0  0  0
   -2.2261    1.3082    1.0241 O   0  0  0  0  0  0  0  0  0  0  0  0
   -3.9916    0.2392   -0.2134 C   0  0  0  0  0  2  0  0  0  0  0  0
  1  2  1  0
  2  3  1  0
  3  4  1  0
  4  5  1  0
  5  6  1  1
  5  7  1  0
  7  8  1  0
  8  9  1  1
  8 10  1  0
 10 11  1  0
 10 12  1  1
M  RAD  2   3   2  12   3
M  END
$$$$
