
     RDKit          2D

 79 81  0  0  0  0  0  0  0  0999 V2000
   16.2500    8.5481    0.0000 C   0  0  0  0  0  0  0  0  0  0  0  0
   16.5105    7.0709    0.0000 C   0  0  0  0  0  3  0  0  0  0  0  0
   17.9201    6.5578    0.0000 C   0  0  0  0  0  0  0  0  0  0  0  0
   19.0691    7.5220    0.0000 C   0  0  0  0  0  0  0  0  0  0  0  0
   18.8086    8.9992    0.0000 O   0  0  0  0  0  0  0  0  0  0  0  0
   20.4787    7.0090    0.0000 C   0  0  0  0  0  0  0  0  0  0  0  0
   21.6277    7.9732    0.0000 O   0  0  0  0  0  0  0  0  0  0  0  0
   20.7391    5.5318    0.0000 C   0  0  0  0  0  0  0  0  0  0  0  0
   22.1487    5.0187    0.0000 O   0  0  0  0  0  0  0  0  0  0  0  0
   19.5901    4.5676    0.0000 O   0  0  0  0  0  0  0  0  0  0  0  0
   18.1805    5.0806    0.0000 C   0  0  0  0  0  0  0  0  0  0  0  0
   17.0315    4.1164    0.0000 C   0  0  0  0  0  3  0  0  0  0  0  0
   15.6219    4.6295    0.0000 C   0  0  0  0  0  0  0  0  0  0  0  0
   14.4729    3.6653    0.0000 C   0  0  0  0  0  3  0  0  0  0  0  0
   14.7333    2.1881    0.0000 O   0  0  0  0  0  0  0  0  0  0  0  0
   13.0633    4.1783    0.0000 C   0  0  0  0  0  0  0  0  0  0  0  0
   12.8028    5.6555    0.0000 O   0  0  0  0  0  0  0  0  0  0  0  0
   11.9142    3.2141    0.0000 C   0  0  0  0  0  0  0  0  0  0  0  0
   12.1747    1.7369    0.0000 O   0  0  0  0  0  0  0  0  0  0  0  0
   10.5047    3.7272    0.0000 C   0  0  0  0  0  0  0  0  0  0  0  0
   10.2442    5.2044    0.0000 O   0  0  0  0  0  0  0  0  0  0  0  0
    9.3556    2.7630    0.0000 C   0  0  0  0  0  3  0  0  0  0  0  0
    7.9461    3.2760    0.0000 C   0  0  0  0  0  0  0  0  0  0  0  0
    6.7970    2.3118    0.0000 C   0  0  0  0  0  3  0  0  0  0  0  0
    5.3875    2.8249    0.0000 O   0  0  0  0  0  0  0  0  0  0  0  0
    4.2384    1.8607    0.0000 O   0  0  0  0  0  0  0  0  0  0  0  0
    2.8289    2.3737    0.0000 O   0  0  0  0  0  0  0  0  0  0  0  0
    1.6798    1.4095    0.0000 C   0  0  0  0  0  0  0  0  0  0  0  0
    2.1929    0.0000    0.0000 O   0  0  0  0  0  0  0  0  0  0  0  0
    0.3808    2.1595    0.0000 C   0  0  0  0  0  3  0  0  0  0  0  0
   -1.0964    1.8991    0.0000 O   0  0  0  0  0  0  0  0  0  0  0  0
   -2.0606    0.7500    0.0000 C   0  0  0  0  0  0  0  0  0  0  0  0
   -2.0606   -0.7500    0.0000 C   0  0  0  0  0  3  0  0  0  0  0  0
   -1.0964   -1.8991    0.0000 C   0  0  0  0  0  3  0  0  0  0  0  0
   -1.8464   -3.1981    0.0000 O   0  0  0  0  0  0  0  0  0  0  0  0
    0.3808   -2.1595    0.0000 N   0  0  0  0  0  0  0  0  0  0  0  0
    1.6798   -1.4095    0.0000 C   0  0  0  0  0  0  0  0  0  0  0  0
    2.8289   -2.3737    0.0000 C   0  0  0  0  0  3  0  0  0  0  0  0
    2.5684   -3.8509    0.0000 O   0  0  0  0  0  0  0  0  0  0  0  0
    3.7175   -4.8151    0.0000 O   0  0  0  0  0  0  0  0  0  0  0  0
    3.4570   -6.2923    0.0000 N   0  0  0  0  0  0  0  0  0  0  0  0
    4.6061   -7.2565    0.0000 C   0  0  0  0  0  3  0  0  0  0  0  0
    4.3456   -8.7337    0.0000 C   0  0  0  0  0  0  0  0  0  0  0  0
    5.4947   -9.6979    0.0000 C   0  0  0  0  0  0  0  0  0  0  0  0
    6.9042   -9.1849    0.0000 O   0  0  0  0  0  0  0  0  0  0  0  0
    5.2342  -11.1751    0.0000 C   0  0  0  0  0  0  0  0  0  0  0  0
    3.8247  -11.6881    0.0000 O   0  0  0  0  0  0  0  0  0  0  0  0
    6.3833  -12.1393    0.0000 C   0  0  0  0  0  0  0  0  0  0  0  0
    5.9322  -13.5699    0.0000 C   0  0  0  0  0  0  0  0  0  0  0  0
    6.6248  -14.9004    0.0000 O   0  0  0  0  0  0  0  0  0  0  0  0
    8.0554  -15.3514    0.0000 C   0  0  0  0  0  0  0  0  0  0  0  0
    8.1861  -16.8457    0.0000 O   0  0  0  0  0  0  0  0  0  0  0  0
    9.3859  -14.6588    0.0000 C   0  0  0  0  0  0  0  0  0  0  0  0
    9.8370  -13.2282    0.0000 O   0  0  0  0  0  0  0  0  0  0  0  0
    9.1444  -11.8977    0.0000 O   0  0  0  0  0  0  0  0  0  0  0  0
    7.7138  -11.4467    0.0000 C   0  0  0  0  0  0  0  0  0  0  0  0
    7.5830   -9.9524    0.0000 C   0  0  0  0  0  3  0  0  0  0  0  0
    8.8118   -9.0920    0.0000 O   0  0  0  0  0  0  0  0  0  0  0  0
    8.6810   -7.5977    0.0000 C   0  0  0  0  0  3  0  0  0  0  0  0
    9.9098   -6.7374    0.0000 O   0  0  0  0  0  0  0  0  0  0  0  0
    9.7790   -5.2431    0.0000 C   0  0  0  0  0  0  0  0  0  0  0  0
    8.4196   -4.6091    0.0000 N   0  0  0  0  0  0  0  0  0  0  0  0
   11.0078   -4.3827    0.0000 C   0  0  0  0  0  3  0  0  0  0  0  0
   10.8770   -2.8884    0.0000 O   0  0  0  0  0  0  0  0  0  0  0  0
   12.1058   -2.0280    0.0000 C   0  0  0  0  0  0  0  0  0  0  0  0
   13.4652   -2.6620    0.0000 C   0  0  0  0  0  0  0  0  0  0  0  0
   14.6940   -1.8016    0.0000 O   0  0  0  0  0  0  0  0  0  0  0  0
   13.5960   -4.1563    0.0000 O   0  0  0  0  0  0  0  0  0  0  0  0
   12.3672   -5.0166    0.0000 C   0  0  0  0  0  3  0  0  0  0  0  0
   12.4980   -6.5109    0.0000 C   0  0  0  0  0  0  0  0  0  0  0  0
   11.2692   -7.3713    0.0000 O   0  0  0  0  0  0  0  0  0  0  0  0
   11.4000   -8.8656    0.0000 C   0  0  0  0  0  0  0  0  0  0  0  0
   10.1712   -9.7259    0.0000 O   0  0  0  0  0  0  0  0  0  0  0  0
   12.7594   -9.4995    0.0000 C   0  0  0  0  0  3  0  0  0  0  0  0
   12.8902  -10.9938    0.0000 N   0  0  0  0  0  0  0  0  0  0  0  0
   14.2496  -11.6277    0.0000 C   0  0  0  0  0  0  0  0  0  0  0  0
   14.3804  -13.1220    0.0000 C   0  0  0  0  0  0  0  0  0  0  0  0
   15.4784  -10.7674    0.0000 C   0  0  0  0  0  3  0  0  0  0  0  0
   16.8378  -11.4013    0.0000 C   0  0  0  0  0  2  0  0  0  0  0  0
  1  2  1  0
  2  3  1  0
  3  4  1  0
  4  5  1  6
  4  6  1  0
  6  7  1  6
  6  8  1  0
  8  9  1  1
  8 10  1  0
 10 11  1  0
 11 12  1  1
 12 13  1  0
 13 14  1  0
 14 15  1  0
 14 16  1  0
 16 17  1  6
 16 18  1  0
 18 19  1  1
 18 20  1  0
 20 21  1  1
 20 22  1  0
 22 23  1  0
 23 24  1  0
 24 25  1  0
 25 26  1  0
 26 27  1  0
 28 27  1  6
 28 29  1  0
 28 30  1  0
 30 31  1  0
 31 32  1  0
 32 33  1  0
 33 34  1  0
 34 35  1  0
 34 36  1  0
 36 37  1  0
 37 38  1  0
 38 39  1  0
 39 40  1  0
 40 41  1  0
 41 42  1  0
 42 43  1  0
 43 44  1  0
 44 45  1  0
 44 46  1  0
 46 47  1  1
 46 48  1  0
 48 49  1  0
 49 50  1  0
 50 51  1  0
 51 52  1  1
 51 53  1  0
 53 54  1  0
 54 55  1  0
 55 56  1  0
 56 57  1  6
 57 58  1  0
 58 59  1  0
 59 60  1  0
 60 61  1  0
 61 62  1  6
 61 63  1  0
 63 64  1  0
 64 65  1  0
 65 66  1  0
 66 67  1  1
 66 68  1  0
 68 69  1  0
 69 70  1  0
 70 71  1  0
 71 72  1  0
 72 73  1  1
 72 74  1  0
 74 75  1  0
 75 76  1  0
 76 77  1  1
 76 78  1  0
 78 79  1  0
 11  3  1  0
 37 29  1  0
 56 48  1  0
M  RAD  8   2   2  12   2  14   2  22   2  24   2  30   2  33   2  34   2
M  RAD  8  38   2  42   2  57   2  59   2  63   2  69   2  74   2  78   2
M  RAD  1  79   3
M  END
$$$$
