
     RDKit          3D

 23 25  0  0  0  0  0  0  0  0999 V2000
    3.4380   -1.0774   -0.3843 C   0  0  0  0  0  0  0  0  0  0  0  0
    2.4121   -0.5659    0.5871 C   0  0  1  0  0  0  0  0  0  0  0  0
    2.7201    0.8588    1.0472 C   0  0  0  0  0  0  0  0  0  0  0  0
    2.5112    1.8566   -0.0544 C   0  0  2  0  0  0  0  0  0  0  0  0
    2.6847    3.1212    0.4434 O   0  0  0  0  0  0  0  0  0  0  0  0
    1.1442    1.7714   -0.6843 C   0  0  2  0  0  0  0  0  0  0  0  0
    0.1223    2.1331    0.1765 O   0  0  0  0  0  0  0  0  0  0  0  0
    0.9873    0.3408   -1.1931 C   0  0  1  0  0  0  0  0  0  0  0  0
    2.1029    0.0839   -1.9856 O   0  0  0  0  0  0  0  0  0  0  0  0
    1.0474   -0.5606    0.0014 C   0  0  1  0  0  0  0  0  0  0  0  0
    0.4410   -1.8314   -0.1713 N   0  0  0  0  0  0  0  0  0  0  0  0
   -0.8506   -1.9660    0.4516 C   0  0  1  0  0  0  0  0  0  0  0  0
   -0.9280   -1.3418    1.8152 C   0  0  0  0  0  0  0  0  0  0  0  0
   -1.5163   -2.3924    2.7569 C   0  0  0  0  0  0  0  0  0  0  0  0
   -1.8039   -0.2537    1.8639 O   0  0  0  0  0  0  0  0  0  0  0  0
   -1.0863    0.9169    1.8033 N   0  0  0  0  0  0  0  0  0  0  0  0
   -0.6572    1.0423    0.4348 C   0  0  1  0  0  0  0  0  0  0  0  0
   -1.8488    0.8861   -0.4527 C   0  0  1  0  0  0  0  0  0  0  0  0
   -2.1244    1.9952   -1.2191 O   0  0  0  0  0  0  0  0  0  0  0  0
   -1.8090   -0.3862   -1.2515 C   0  0  2  0  0  0  0  0  0  0  0  0
   -2.8230   -0.3190   -2.2091 O   0  0  0  0  0  0  0  0  0  0  0  0
   -1.9969   -1.6193   -0.4399 C   0  0  1  0  0  0  0  0  0  0  0  0
   -2.1667   -2.6926   -1.3359 O   0  0  0  0  0  0  0  0  0  0  0  0
  2  1  1  6
  2  3  1  0
  3  4  1  0
  4  5  1  1
  4  6  1  0
  6  7  1  1
  6  8  1  0
  8  9  1  6
  8 10  1  0
 10 11  1  6
 12 11  1  6
 12 13  1  0
 13 14  1  0
 13 15  1  0
 15 16  1  0
 17 16  1  1
 17 18  1  0
 18 19  1  6
 18 20  1  0
 20 21  1  6
 20 22  1  0
 22 23  1  6
 10  2  1  0
 17  7  1  0
 22 12  1  0
M  END
$$$$
