
     RDKit          3D

 80 85  0  0  0  0  0  0  0  0999 V2000
    2.0726    0.4943    0.2517 C   0  0  0  0  0  0  0  0  0  0  0  0
    1.7307    0.6568    1.6616 C   0  0  0  0  0  3  0  0  0  0  0  0
    0.9677   -0.4308    2.3113 C   0  0  0  0  0  0  0  0  0  0  0  0
   -0.5222   -0.1045    2.3148 C   0  0  0  0  0  0  0  0  0  0  0  0
   -0.6598    1.2348    2.9328 C   0  0  0  0  0  0  0  0  0  0  0  0
   -1.7600    1.6776    3.1654 O   0  0  0  0  0  0  0  0  0  0  0  0
    0.5277    2.0520    3.2758 C   0  0  0  0  0  0  0  0  0  0  0  0
    1.5855    2.0062    2.2062 C   0  0  2  0  0  0  0  0  0  0  0  0
    1.3346    3.1028    1.2361 C   0  0  0  0  0  0  0  0  0  0  0  0
    2.1899    2.9838   -0.0045 C   0  0  0  0  0  0  0  0  0  0  0  0
    1.8680    1.6533   -0.6424 C   0  0  2  0  0  0  0  0  0  0  0  0
    0.5262    1.6685   -1.3401 C   0  0  0  0  0  0  0  0  0  0  0  0
    0.1474    3.0508   -1.8166 C   0  0  0  0  0  0  0  0  0  0  0  0
   -1.1639    3.5248   -1.2455 C   0  0  0  0  0  3  0  0  0  0  0  0
   -1.0937    4.8323   -0.8673 F   0  0  0  0  0  0  0  0  0  0  0  0
   -2.3404    3.1895   -2.1014 C   0  0  0  0  0  3  0  0  0  0  0  0
   -3.5596    3.0465   -1.2189 C   0  0  0  0  0  0  0  0  0  0  0  0
   -3.8679    4.3026   -0.4642 C   0  0  0  0  0  0  0  0  0  0  0  0
   -4.1364    5.4603   -1.4027 C   0  0  0  0  0  0  0  0  0  0  0  0
   -4.4182    6.6059   -0.6551 O   0  0  0  0  0  0  0  0  0  0  0  0
   -3.5339    7.1515    0.2404 C   0  0  0  0  0  0  0  0  0  0  0  0
   -3.7850    7.8200    1.2955 C   0  0  0  0  0  0  0  0  0  0  0  0
   -4.9932    8.2556    1.9487 C   0  0  0  0  0  0  0  0  0  0  0  0
   -6.1640    7.8997    1.3360 O   0  0  0  0  0  0  0  0  0  0  0  0
   -6.2609    8.4402    0.0592 C   0  0  0  0  0  3  0  0  0  0  0  0
   -5.9670    9.9193    0.0554 C   0  0  0  0  0  2  0  0  0  0  0  0
   -4.8038   10.1736   -0.9099 C   0  0  0  0  0  0  0  0  0  0  0  0
   -2.0982    1.8494   -2.7620 C   0  0  0  0  0  0  0  0  0  0  0  0
   -2.5297    0.7735   -1.7871 C   0  0  0  0  0  0  0  0  0  0  0  0
   -1.9582   -0.5699   -2.1335 C   0  0  0  0  0  3  0  0  0  0  0  0
   -2.5047   -1.5870   -1.1665 C   0  0  0  0  0  3  0  0  0  0  0  0
   -3.6497   -0.9877   -0.3396 C   0  0  0  0  0  0  0  0  0  0  0  0
   -3.4375   -1.5305    1.0796 C   0  0  0  0  0  0  0  0  0  0  0  0
   -3.5894   -3.0161    0.8637 C   0  0  0  0  0  0  0  0  0  0  0  0
   -4.4499   -3.1929   -0.3688 C   0  0  0  0  0  0  0  0  0  0  0  0
   -4.8913   -1.7936   -0.7427 C   0  0  1  0  0  0  0  0  0  0  0  0
   -6.0990   -1.3588    0.0566 C   0  0  0  0  0  0  0  0  0  0  0  0
   -6.7407   -0.1880   -0.6593 C   0  0  0  0  0  0  0  0  0  0  0  0
   -7.1272   -2.4563    0.1699 C   0  0  1  0  0  0  0  0  0  0  0  0
   -7.9130   -2.6780   -1.0760 C   0  0  0  0  0  0  0  0  0  0  0  0
   -9.0937   -3.3379   -0.8383 O   0  0  0  0  0  0  0  0  0  0  0  0
   -9.9330   -2.6890    0.0578 C   0  0  0  0  0  3  0  0  0  0  0  0
   -9.7606   -3.2086    1.4680 C   0  0  0  0  0  2  0  0  0  0  0  0
   -8.8526   -4.4443    1.4809 C   0  0  0  0  0  3  0  0  0  0  0  0
   -7.5097   -3.9779    2.0422 C   0  0  0  0  0  3  0  0  0  0  0  0
   -6.6227   -3.6925    0.8265 C   0  0  1  0  0  0  0  0  0  0  0  0
   -6.6444   -4.8199    0.0428 O   0  0  0  0  0  0  0  0  0  0  0  0
   -6.5609   -5.9353    0.8761 C   0  0  0  0  0  2  0  0  0  0  0  0
   -5.0931   -6.1506    1.1799 C   0  0  0  0  0  0  0  0  0  0  0  0
   -4.4238   -7.0909    0.2350 C   0  0  0  0  0  0  0  0  0  0  0  0
   -3.5064   -6.4374   -0.7466 C   0  0  0  0  0  3  0  0  0  0  0  0
   -2.2658   -6.1193   -0.2353 O   0  0  0  0  0  0  0  0  0  0  0  0
   -1.6645   -5.1047   -1.0064 C   0  0  0  0  0  0  0  0  0  0  0  0
   -0.2243   -4.9141   -0.6463 C   0  0  0  0  0  0  0  0  0  0  0  0
    0.1795   -5.8823    0.4235 C   0  0  0  0  0  0  0  0  0  0  0  0
   -0.3953   -5.2295    1.6796 C   0  0  0  0  0  0  0  0  0  0  0  0
   -0.3142   -3.7450    1.4146 C   0  0  0  0  0  0  0  0  0  0  0  0
    0.0211   -3.5724   -0.0421 C   0  0  1  0  0  0  0  0  0  0  0  0
    1.3021   -3.0884   -0.2444 O   0  0  0  0  0  0  0  0  0  0  0  0
    1.4685   -1.9308    0.5101 C   0  0  0  0  0  0  0  0  0  0  0  0
    1.5961   -0.7588   -0.4067 C   0  0  0  0  0  3  0  0  0  0  0  0
    2.4615   -1.1148   -1.4533 O   0  0  0  0  0  0  0  0  0  0  0  0
    3.7342   -1.3500   -0.9358 C   0  0  0  0  0  0  0  0  0  0  0  0
    4.3134   -0.1552   -0.2480 C   0  0  0  0  0  3  0  0  0  0  0  0
    5.0823    0.6627   -1.2554 C   0  0  0  0  0  3  0  0  0  0  0  0
    6.3850   -0.0077   -1.5639 C   0  0  0  0  0  0  0  0  0  0  0  0
    6.1845   -1.3953   -2.1394 C   0  0  0  0  0  3  0  0  0  0  0  0
    7.4813   -2.0710   -2.4500 C   0  0  0  0  0  0  0  0  0  0  0  0
    8.3601   -2.2425   -1.2416 C   0  0  0  0  0  3  0  0  0  0  0  0
    8.7274   -0.9299   -0.5906 C   0  0  0  0  0  0  0  0  0  0  0  0
    9.6109   -1.2700    0.6065 C   0  0  0  0  0  3  0  0  0  0  0  0
   10.0395   -0.0005    1.3387 C   0  0  0  0  0  3  0  0  0  0  0  0
   11.4984    0.2426    0.9888 C   0  0  0  0  0  3  0  0  0  0  0  0
   12.1664   -1.1151    0.8947 C   0  0  0  0  0  0  0  0  0  0  0  0
   13.6349   -0.9661    0.5469 C   0  0  0  0  0  3  0  0  0  0  0  0
   13.8392   -0.2734   -0.7664 C   0  0  0  0  0  3  0  0  0  0  0  0
   13.5252    1.0735   -0.6024 O   0  0  0  0  0  0  0  0  0  0  0  0
   14.7009    1.8148   -0.4654 C   0  0  0  0  0  3  0  0  0  0  0  0
   14.3951    3.0905    0.2679 C   0  0  0  0  0  3  0  0  0  0  0  0
   15.2255    4.2058   -0.3493 C   0  0  0  0  0  0  0  0  0  0  0  0
  1  2  1  0
  2  3  1  0
  3  4  1  0
  4  5  1  0
  5  6  2  0
  5  7  1  0
  8  7  1  1
  8  9  1  0
  9 10  1  0
 11 10  1  1
 11 12  1  0
 12 13  1  0
 13 14  1  0
 14 15  1  6
 14 16  1  0
 16 17  1  1
 17 18  1  0
 18 19  1  0
 19 20  1  0
 20 21  1  0
 21 22  2  3
 22 23  1  0
 23 24  1  0
 24 25  1  0
 25 26  1  0
 26 27  1  0
 16 28  1  0
 28 29  1  0
 29 30  1  0
 30 31  1  0
 31 32  1  0
 32 33  1  0
 33 34  1  0
 34 35  1  0
 36 35  1  1
 36 37  1  0
 37 38  1  0
 37 39  1  0
 39 40  1  6
 40 41  1  0
 41 42  1  0
 42 43  1  0
 43 44  1  0
 44 45  1  0
 46 45  1  1
 46 47  1  0
 47 48  1  0
 48 49  1  0
 49 50  1  0
 50 51  1  0
 51 52  1  0
 52 53  1  0
 53 54  1  0
 54 55  1  0
 55 56  1  0
 56 57  1  0
 58 57  1  1
 58 59  1  0
 59 60  1  0
 60 61  1  0
 61 62  1  6
 62 63  1  0
 63 64  1  0
 64 65  1  0
 65 66  1  0
 66 67  1  0
 67 68  1  0
 68 69  1  0
 69 70  1  0
 70 71  1  0
 71 72  1  0
 72 73  1  0
 73 74  1  0
 74 75  1  0
 75 76  1  0
 76 77  1  0
 77 78  1  0
 78 79  1  0
 79 80  1  0
 11  1  1  0
 61  1  1  0
  8  2  1  0
 36 32  1  0
 46 39  1  0
 58 54  1  0
M  RAD  8   2   2  14   2  16   2  25   2  26   3  30   2  31   2  42   2
M  RAD  8  43   3  44   2  45   2  48   3  51   2  61   2  64   2  65   2
M  RAD  8  67   2  69   2  71   2  72   2  73   2  75   2  76   2  78   2
M  RAD  1  79   2
M  END
$$$$
