
     RDKit          3D

 10  9  0  0  0  0  0  0  0  0999 V2000
    4.4625   -1.6052    0.9119 Br  0  0  0  0  0  0  0  0  0  0  0  0
    3.4252   -1.0871   -0.6450 C   0  0  0  0  0  0  0  0  0  0  0  0
    3.1746    0.6997   -0.7160 S   0  0  0  0  0  0  0  0  0  0  0  0
    1.9370    1.3671    0.9144 S   0  0  0  0  0  0  0  0  0  0  0  0
    0.3473    1.5123    0.7155 N   0  0  0  0  0  0  0  0  0  0  0  0
   -0.2004    1.2038   -0.5091 N   0  0  0  0  0  0  0  0  0  0  0  0
   -1.9237    0.8945   -0.7786 S   0  0  0  0  0  0  0  0  0  0  0  0
   -2.6498   -0.3599   -0.0497 C   0  0  0  0  0  0  0  0  0  0  0  0
   -4.0235   -0.6651   -0.2205 N   0  0  0  0  0  0  0  0  0  0  0  0
   -4.5491   -1.9602    0.1828 C   0  0  0  0  0  2  0  0  0  0  0  0
  1  2  1  0
  2  3  1  0
  3  4  1  0
  4  5  2  3
  5  6  1  0
  6  7  1  0
  7  8  2  3
  8  9  1  0
  9 10  1  0
M  RAD  1  10   3
M  END
$$$$
