
     RDKit          3D

  5  5  0  0  0  0  0  0  0  0999 V2000
   -0.5081   -0.8609    0.1367 N   0  0  0  0  0  0  0  0  0  0  0  0
   -1.3787   -0.0126   -0.2349 C   0  0  0  0  0  0  0  0  0  0  0  0
   -0.5085    0.8930   -0.0452 N   0  0  0  0  0  0  0  0  0  0  0  0
    0.5286    0.0120   -0.1327 N   0  0  0  0  0  0  0  0  0  0  0  0
    1.8668   -0.0316   -0.3589 N   0  0  0  0  0  2  0  0  0  0  0  0
  1  2  2  0
  2  3  2  0
  3  4  1  0
  4  5  1  0
  4  1  1  0
M  RAD  1   5   2
M  END
$$$$
