
     RDKit          2D

 88 87  0  0  0  0  0  0  0  0999 V2000
    7.7942   -1.5000    0.0000 O   0  0  0  0  0  0  0  0  0  0  0  0
    6.4952   -2.2500    0.0000 O   0  0  0  0  0  0  0  0  0  0  0  0
    5.1962   -1.5000    0.0000 C   0  0  0  0  0  3  0  0  0  0  0  0
    3.8971   -2.2500    0.0000 O   0  0  0  0  0  0  0  0  0  0  0  0
    2.5981   -1.5000    0.0000 C   0  0  0  0  0  0  0  0  0  0  0  0
    1.2990   -2.2500    0.0000 C   0  0  0  0  0  0  0  0  0  0  0  0
    2.5981   -0.0000    0.0000 C   0  0  0  0  0  3  0  0  0  0  0  0
    3.8971    0.7500    0.0000 C   0  0  0  0  0  0  0  0  0  0  0  0
    3.8971    2.2500    0.0000 O   0  0  0  0  0  0  0  0  0  0  0  0
    5.1962    3.0000    0.0000 C   0  0  0  0  0  3  0  0  0  0  0  0
    5.1962    4.5000    0.0000 C   0  0  0  0  0  0  0  0  0  0  0  0
    6.4952    5.2500    0.0000 C   0  0  0  0  0  0  0  0  0  0  0  0
    6.4952    6.7500    0.0000 O   0  0  0  0  0  0  0  0  0  0  0  0
    7.7942    7.5000    0.0000 N   0  0  0  0  0  0  0  0  0  0  0  0
    7.7942    9.0000    0.0000 S   0  0  0  0  0  0  0  0  0  0  0  0
    3.8971    5.2500    0.0000 C   0  0  0  0  0  0  0  0  0  0  0  0
    3.8971    6.7500    0.0000 O   0  0  0  0  0  0  0  0  0  0  0  0
    2.5981    7.5000    0.0000 C   0  0  0  0  0  0  0  0  0  0  0  0
    2.5981    9.0000    0.0000 O   0  0  0  0  0  0  0  0  0  0  0  0
    1.2990    9.7500    0.0000 C   0  0  0  0  0  0  0  0  0  0  0  0
    1.2990   11.2500    0.0000 C   0  0  0  0  0  0  0  0  0  0  0  0
    0.0000   12.0000    0.0000 O   0  0  0  0  0  0  0  0  0  0  0  0
   -0.0000   13.5000    0.0000 O   0  0  0  0  0  0  0  0  0  0  0  0
   -1.2990   14.2500    0.0000 C   0  0  0  0  0  2  0  0  0  0  0  0
    0.0000    9.0000    0.0000 O   0  0  0  0  0  0  0  0  0  0  0  0
   -1.2990    9.7500    0.0000 C   0  0  0  0  0  0  0  0  0  0  0  0
   -1.2990   11.2500    0.0000 O   0  0  0  0  0  0  0  0  0  0  0  0
   -2.5981    9.0000    0.0000 C   0  0  0  0  0  3  0  0  0  0  0  0
   -3.8971    9.7500    0.0000 O   0  0  0  0  0  0  0  0  0  0  0  0
   -5.1962    9.0000    0.0000 O   0  0  0  0  0  0  0  0  0  0  0  0
   -6.4952    9.7500    0.0000 C   0  0  0  0  0  0  0  0  0  0  0  0
   -7.7942    9.0000    0.0000 O   0  0  0  0  0  0  0  0  0  0  0  0
   -9.0933    9.7500    0.0000 C   0  0  0  0  0  0  0  0  0  0  0  0
   -9.0933   11.2500    0.0000 C   0  0  0  0  0  0  0  0  0  0  0  0
  -10.3923   12.0000    0.0000 O   0  0  0  0  0  0  0  0  0  0  0  0
  -10.3923   13.5000    0.0000 C   0  0  0  0  0  3  0  0  0  0  0  0
  -11.6913   14.2500    0.0000 C   0  0  0  0  0  0  0  0  0  0  0  0
  -11.6913   15.7500    0.0000 O   0  0  0  0  0  0  0  0  0  0  0  0
  -12.9904   16.5000    0.0000 C   0  0  0  0  0  3  0  0  0  0  0  0
  -12.9904   18.0000    0.0000 O   0  0  0  0  0  0  0  0  0  0  0  0
  -10.3923    9.0000    0.0000 C   0  0  0  0  0  3  0  0  0  0  0  0
  -11.6913    9.7500    0.0000 O   0  0  0  0  0  0  0  0  0  0  0  0
  -12.9904    9.0000    0.0000 C   0  0  0  0  0  2  0  0  0  0  0  0
    5.1962   -0.0000    0.0000 C   0  0  0  0  0  0  0  0  0  0  0  0
    6.4952    0.7500    0.0000 O   0  0  0  0  0  0  0  0  0  0  0  0
    7.7942   -0.0000    0.0000 O   0  0  0  0  0  0  0  0  0  0  0  0
    9.0933    0.7500    0.0000 O   0  0  0  0  0  0  0  0  0  0  0  0
   10.3923   -0.0000    0.0000 O   0  0  0  0  0  0  0  0  0  0  0  0
   11.6913    0.7500    0.0000 C   0  0  0  0  0  3  0  0  0  0  0  0
   12.9904   -0.0000    0.0000 O   0  0  0  0  0  0  0  0  0  0  0  0
   14.2894    0.7500    0.0000 C   0  0  0  0  0  3  0  0  0  0  0  0
   15.5885   -0.0000    0.0000 O   0  0  0  0  0  0  0  0  0  0  0  0
   16.8875    0.7500    0.0000 C   0  0  0  0  0  0  0  0  0  0  0  0
   16.8875    2.2500    0.0000 O   0  0  0  0  0  0  0  0  0  0  0  0
   18.1865    3.0000    0.0000 S   0  0  0  0  0  0  0  0  0  0  0  0
   18.1865    4.5000    0.0000 O   0  0  0  0  0  0  0  0  0  0  0  0
   18.1865   -0.0000    0.0000 C   0  0  0  0  0  0  0  0  0  0  0  0
   19.4856    0.7500    0.0000 O   0  0  0  0  0  0  0  0  0  0  0  0
   18.1865   -1.5000    0.0000 S   0  0  0  0  0  0  0  0  0  0  0  0
   19.4856   -2.2500    0.0000 C   0  0  0  0  0  0  0  0  0  0  0  0
   19.4856   -3.7500    0.0000 C   0  0  0  0  0  0  0  0  0  0  0  0
   20.7846   -4.5000    0.0000 C   0  0  0  0  0  3  0  0  0  0  0  0
   20.7846   -6.0000    0.0000 C   0  0  0  0  0  3  0  0  0  0  0  0
   22.0836   -6.7500    0.0000 O   0  0  0  0  0  0  0  0  0  0  0  0
   22.0836   -8.2500    0.0000 C   0  0  0  0  0  0  0  0  0  0  0  0
   23.3827   -9.0000    0.0000 O   0  0  0  0  0  0  0  0  0  0  0  0
   23.3827  -10.5000    0.0000 O   0  0  0  0  0  0  0  0  0  0  0  0
   24.6817  -11.2500    0.0000 C   0  0  0  0  0  3  0  0  0  0  0  0
   24.6817  -12.7500    0.0000 O   0  0  0  0  0  0  0  0  0  0  0  0
   25.9808  -13.5000    0.0000 C   0  0  0  0  0  0  0  0  0  0  0  0
   25.9808  -15.0000    0.0000 C   0  0  0  0  0  0  0  0  0  0  0  0
   27.2798  -15.7500    0.0000 O   0  0  0  0  0  0  0  0  0  0  0  0
   27.2798  -17.2500    0.0000 C   0  0  0  0  0  3  0  0  0  0  0  0
   28.5788  -18.0000    0.0000 O   0  0  0  0  0  0  0  0  0  0  0  0
   20.7846   -1.5000    0.0000 C   0  0  0  0  0  0  0  0  0  0  0  0
   22.0836   -2.2500    0.0000 C   0  0  0  0  0  0  0  0  0  0  0  0
   23.3827   -1.5000    0.0000 O   0  0  0  0  0  0  0  0  0  0  0  0
   24.6817   -2.2500    0.0000 S   0  0  0  0  0  0  0  0  0  0  0  0
   25.9808   -1.5000    0.0000 O   0  0  0  0  0  0  0  0  0  0  0  0
   27.2798   -2.2500    0.0000 O   0  0  0  0  0  0  0  0  0  0  0  0
   28.5788   -1.5000    0.0000 C   0  0  0  0  0  0  0  0  0  0  0  0
   28.5788   -0.0000    0.0000 S   0  0  0  0  0  0  0  0  0  0  0  0
   29.8779    0.7500    0.0000 O   0  0  0  0  0  0  0  0  0  0  0  0
   29.8779    2.2500    0.0000 O   0  0  0  0  0  0  0  0  0  0  0  0
   31.1769    3.0000    0.0000 C   0  0  0  0  0  2  0  0  0  0  0  0
   29.8779   -2.2500    0.0000 C   0  0  0  0  0  3  0  0  0  0  0  0
   31.1769   -1.5000    0.0000 O   0  0  0  0  0  0  0  0  0  0  0  0
   32.4760   -2.2500    0.0000 O   0  0  0  0  0  0  0  0  0  0  0  0
  1  2  1  0
  2  3  1  0
  3  4  1  0
  4  5  1  0
  5  6  1  6
  5  7  1  0
  8  7  1  1
  8  9  1  0
  9 10  1  0
 11 10  1  1
 11 12  1  0
 12 13  1  0
 13 14  1  0
 14 15  1  0
 11 16  1  0
 16 17  1  0
 17 18  1  0
 18 19  1  0
 19 20  1  0
 20 21  1  1
 21 22  1  0
 22 23  1  0
 23 24  1  0
 20 25  1  0
 25 26  1  0
 26 27  1  1
 26 28  1  0
 28 29  1  0
 29 30  1  0
 30 31  1  0
 31 32  1  0
 32 33  1  0
 33 34  1  1
 34 35  1  0
 35 36  1  0
 36 37  1  0
 37 38  1  0
 38 39  1  0
 39 40  1  0
 33 41  1  0
 41 42  1  0
 42 43  1  0
  8 44  1  0
 44 45  1  0
 45 46  1  0
 46 47  1  0
 47 48  1  0
 48 49  1  0
 49 50  1  0
 50 51  1  0
 51 52  1  0
 53 52  1  6
 53 54  1  0
 54 55  1  0
 55 56  1  0
 53 57  1  0
 57 58  1  6
 57 59  1  0
 59 60  1  0
 60 61  1  1
 61 62  1  0
 62 63  1  0
 63 64  1  0
 64 65  1  0
 65 66  1  0
 66 67  1  0
 67 68  1  0
 68 69  1  0
 69 70  1  0
 70 71  1  0
 71 72  1  0
 72 73  1  0
 73 74  1  0
 60 75  1  0
 75 76  1  0
 76 77  1  0
 77 78  1  0
 78 79  1  0
 79 80  1  0
 80 81  1  0
 81 82  1  0
 82 83  1  0
 83 84  1  0
 84 85  1  0
 81 86  1  6
 86 87  1  0
 87 88  1  0
M  RAD  8   3   2   7   2  10   2  24   3  28   2  36   2  39   2  41   2
M  RAD  8  43   3  49   2  51   2  62   2  63   2  68   2  73   2  85   3
M  RAD  1  86   2
M  END
$$$$
