
     RDKit          3D

  3  2  0  0  0  0  0  0  0  0999 V2000
   -1.2018   -0.2436   -0.0000 C   0  0  0  0  0  0  0  0  0  0  0  0
   -0.0673    0.4505   -0.0000 C   0  0  0  0  0  0  0  0  0  0  0  0
    1.2691   -0.2068    0.0000 C   0  0  0  0  0  2  0  0  0  0  0  0
  1  2  2  0
  2  3  1  0
M  RAD  1   3   3
M  END
$$$$
