
     RDKit          3D

 18 17  0  0  0  0  0  0  0  0999 V2000
   -5.2945    2.0771   -0.9563 O   0  0  0  0  0  0  0  0  0  0  0  0
   -4.9419    2.0782    0.2275 C   0  0  0  0  0  0  0  0  0  0  0  0
   -5.4545    0.8700    0.9987 C   0  0  0  0  0  0  0  0  0  0  0  0
   -4.5040   -0.5565    0.2996 S   0  0  0  0  0  0  0  0  0  0  0  0
   -2.7553   -0.6173    0.3514 C   0  0  0  0  0  0  0  0  0  0  0  0
   -1.9341    0.3196   -0.1186 C   0  0  0  0  0  0  0  0  0  0  0  0
   -0.4650   -0.0284    0.0753 C   0  0  0  0  0  0  0  0  0  0  0  0
    0.3585    0.7729   -0.3327 C   0  0  0  0  0  0  0  0  0  0  0  0
    1.5690    1.3386   -0.6070 C   0  0  0  0  0  0  0  0  0  0  0  0
    2.7132    0.6218    0.1531 C   0  0  0  0  0  3  0  0  0  0  0  0
    3.2663   -0.7673   -0.8048 S   0  0  0  0  0  0  0  0  0  0  0  0
    4.4652   -1.6735    0.0489 O   0  0  0  0  0  0  0  0  0  0  0  0
    5.2611   -0.7605    0.6306 O   0  0  0  0  0  0  0  0  0  0  0  0
    6.4649   -0.7085    0.0089 O   0  0  0  0  0  0  0  0  0  0  0  0
    6.7209    0.4194   -0.7810 C   0  0  0  0  0  0  0  0  0  0  0  0
    5.8158    1.2861   -0.8364 O   0  0  0  0  0  0  0  0  0  0  0  0
   -5.3899   -1.8093   -0.2026 C   0  0  0  0  0  0  0  0  0  0  0  0
   -5.8956   -2.8624   -0.6346 O   0  0  0  0  0  0  0  0  0  0  0  0
  1  2  2  0
  2  3  1  0
  3  4  1  0
  4  5  1  0
  5  6  2  3
  6  7  1  0
  7  8  2  3
  8  9  1  0
  9 10  1  0
 10 11  1  0
 11 12  1  0
 12 13  1  0
 13 14  1  0
 14 15  1  0
 15 16  2  0
  4 17  2  0
 17 18  2  0
M  RAD  1  10   2
M  END
$$$$
