
     RDKit          3D

 53 52  0  0  0  0  0  0  0  0999 V2000
   -7.4921   -3.0599   -1.0828 C   0  0  0  0  0  0  0  0  0  0  0  0
   -7.0416   -1.7216   -1.5725 C   0  0  0  0  0  0  0  0  0  0  0  0
   -6.5749   -0.7640   -0.5480 C   0  0  0  0  0  0  0  0  0  0  0  0
   -5.3785   -1.1836    0.2086 C   0  0  0  0  0  0  0  0  0  0  0  0
   -4.1220   -1.3736   -0.4806 C   0  0  0  0  0  0  0  0  0  0  0  0
   -4.0984   -2.3523   -1.4877 N   0  0  0  0  0  0  0  0  0  0  0  0
   -4.3496   -3.6388   -1.2072 N   0  0  0  0  0  0  0  0  0  0  0  0
   -4.5530   -4.2127    0.0368 C   0  0  0  0  0  0  0  0  0  0  0  0
   -4.5158   -3.5456    1.0906 O   0  0  0  0  0  0  0  0  0  0  0  0
   -2.8690   -0.7897   -0.1774 C   0  0  0  0  0  0  0  0  0  0  0  0
   -2.6056    0.6450   -0.1459 C   0  0  0  0  0  0  0  0  0  0  0  0
   -3.3167    1.4914    0.8022 C   0  0  0  0  0  0  0  0  0  0  0  0
   -4.7441    1.5573    0.6725 C   0  0  0  0  0  0  0  0  0  0  0  0
   -5.4657    2.6272    0.4638 C   0  0  0  0  0  0  0  0  0  0  0  0
   -4.9289    3.9529    0.3288 C   0  0  0  0  0  0  0  0  0  0  0  0
   -5.6633    5.0152    0.1178 C   0  0  0  0  0  0  0  0  0  0  0  0
   -7.0757    4.9315    0.0041 N   0  0  0  0  0  0  0  0  0  0  0  0
   -7.8626    5.9840    0.4784 N   0  0  0  0  0  0  0  0  0  0  0  0
   -7.3950    6.8451    1.2453 O   0  0  0  0  0  0  0  0  0  0  0  0
   -1.6602   -1.6075   -0.0167 C   0  0  0  0  0  0  0  0  0  0  0  0
   -1.6898   -2.8696   -0.1090 N   0  0  0  0  0  0  0  0  0  0  0  0
   -0.6501   -3.7572    0.0183 N   0  0  0  0  0  0  0  0  0  0  0  0
   -0.5293   -4.4627    1.2698 C   0  0  0  0  0  0  0  0  0  0  0  0
   -1.3878   -4.2220    2.1818 O   0  0  0  0  0  0  0  0  0  0  0  0
   -0.3970   -0.9295    0.2513 C   0  0  0  0  0  0  0  0  0  0  0  0
   -0.4549   -0.0863    1.4222 C   0  0  0  0  0  0  0  0  0  0  0  0
    0.7719    0.6744    1.8186 C   0  0  0  0  0  3  0  0  0  0  0  0
    0.4413    1.4090    2.9950 O   0  0  0  0  0  0  0  0  0  0  0  0
    0.6677    0.7814    4.2114 C   0  0  0  0  0  0  0  0  0  0  0  0
    1.1464   -0.3873    4.2719 O   0  0  0  0  0  0  0  0  0  0  0  0
    0.3792   -0.6518   -0.9273 C   0  0  1  0  0  0  0  0  0  0  0  0
   -0.3959    0.2198   -1.8872 C   0  0  0  0  0  0  0  0  0  0  0  0
    0.1402    1.3192   -2.4070 C   0  0  0  0  0  0  0  0  0  0  0  0
    1.7522   -0.0667   -0.6916 C   0  0  1  0  0  0  0  0  0  0  0  0
    2.5258   -0.9798    0.0733 N   0  0  0  0  0  0  0  0  0  0  0  0
    2.8275   -2.1608   -0.3178 C   0  0  0  0  0  0  0  0  0  0  0  0
    3.6424   -3.0074    0.5861 C   0  0  0  0  0  0  0  0  0  0  0  0
    2.8634   -4.2773    0.9285 C   0  0  0  0  0  0  0  0  0  0  0  0
    2.4097   -2.7365   -1.6216 C   0  0  0  0  0  0  0  0  0  0  0  0
    2.4369    0.1804   -2.0045 C   0  0  0  0  0  0  0  0  0  0  0  0
    3.8014    0.7940   -1.8007 C   0  0  1  0  0  0  0  0  0  0  0  0
    3.5751    1.9901   -1.1222 O   0  0  0  0  0  0  0  0  0  0  0  0
    4.6663    0.0098   -1.0734 O   0  0  0  0  0  0  0  0  0  0  0  0
    5.8808    0.7497   -0.9371 C   0  0  0  0  0  0  0  0  0  0  0  0
    6.3675    1.1197   -2.2848 C   0  0  0  0  0  0  0  0  0  0  0  0
    7.6524    1.8386   -2.2757 C   0  0  0  0  0  3  0  0  0  0  0  0
    8.2742    1.8736   -0.9888 N   0  0  0  0  0  0  0  0  0  0  0  0
    9.4345    2.6447   -0.9689 N   0  0  0  0  0  0  0  0  0  0  0  0
   10.0733    2.6224   -2.2581 C   0  0  0  0  0  2  0  0  0  0  0  0
    6.7533   -0.0360   -0.2321 O   0  0  0  0  0  0  0  0  0  0  0  0
    6.9776   -1.1814   -0.8885 N   0  0  0  0  0  0  0  0  0  0  0  0
    5.4912    1.9583   -0.1048 C   0  0  0  0  0  0  0  0  0  0  0  0
    6.2651    2.8267    0.1331 O   0  0  0  0  0  0  0  0  0  0  0  0
  1  2  1  0
  2  3  1  0
  3  4  1  0
  4  5  1  0
  5  6  1  0
  6  7  1  0
  7  8  1  0
  8  9  2  0
  5 10  1  0
 10 11  1  0
 11 12  1  0
 12 13  1  0
 13 14  2  3
 14 15  1  0
 15 16  2  3
 16 17  1  0
 17 18  1  0
 18 19  2  0
 10 20  1  0
 20 21  2  3
 21 22  1  0
 22 23  1  0
 23 24  2  0
 20 25  1  0
 25 26  1  0
 26 27  1  0
 27 28  1  0
 28 29  1  0
 29 30  2  0
 31 25  1  1
 31 32  1  0
 32 33  2  0
 31 34  1  0
 34 35  1  0
 35 36  2  3
 36 37  1  0
 37 38  1  0
 36 39  1  0
 34 40  1  6
 40 41  1  0
 41 42  1  1
 41 43  1  0
 43 44  1  0
 44 45  1  0
 45 46  1  0
 46 47  1  0
 47 48  1  0
 48 49  1  0
 44 50  1  0
 50 51  1  0
 44 52  1  0
 52 53  2  0
M  RAD  3  27   2  46   2  49   3
M  END
$$$$
