
     RDKit          3D

 52 55  0  0  0  0  0  0  0  0999 V2000
   10.2436    2.7573   -1.5478 C   0  0  0  0  0  0  0  0  0  0  0  0
    9.2309    3.7363   -0.9715 C   0  0  0  0  0  0  0  0  0  0  0  0
    9.8734    5.0856   -0.7088 C   0  0  0  0  0  0  0  0  0  0  0  0
    8.6798    3.2454    0.3426 C   0  0  0  0  0  0  0  0  0  0  0  0
    7.9964    1.9292    0.1745 C   0  0  0  0  0  0  0  0  0  0  0  0
    6.8168    1.9997   -0.8080 C   0  0  0  0  0  0  0  0  0  0  0  0
    6.2034    0.5971   -0.8980 C   0  0  1  0  0  0  0  0  0  0  0  0
    7.2267   -0.3994   -1.3967 C   0  0  0  0  0  0  0  0  0  0  0  0
    5.7482    0.2731    0.5065 C   0  0  0  0  0  3  0  0  0  0  0  0
    4.7146    1.2874    0.9035 C   0  0  0  0  0  0  0  0  0  0  0  0
    4.1961    1.1118    2.2804 C   0  0  0  0  0  0  0  0  0  0  0  0
    3.5255   -0.1489    2.6220 C   0  0  1  0  0  0  0  0  0  0  0  0
    2.3085   -0.5505    1.9152 C   0  0  0  0  0  0  0  0  0  0  0  0
    4.5012   -1.3083    2.8201 C   0  0  0  0  0  0  0  0  0  0  0  0
    3.8280   -2.5133    2.1650 C   0  0  0  0  0  0  0  0  0  0  0  0
    3.6063   -3.6293    3.1387 C   0  0  0  0  0  0  0  0  0  0  0  0
    4.6128   -2.8941    0.9586 C   0  0  0  0  0  0  0  0  0  0  0  0
    3.8866   -2.4197   -0.2787 C   0  0  0  0  0  0  0  0  0  0  0  0
    3.8767   -3.5098   -1.3218 C   0  0  0  0  0  0  0  0  0  0  0  0
    4.6826   -4.6168   -1.0028 O   0  0  0  0  0  0  0  0  0  0  0  0
    2.4279   -3.8484   -0.9466 C   0  0  0  0  0  0  0  0  0  0  0  0
    2.4244   -2.6014   -0.0859 C   0  0  0  0  0  0  0  0  0  0  0  0
    1.5424   -1.5479   -0.6309 C   0  0  0  0  0  0  0  0  0  0  0  0
    1.3770   -1.5594   -2.1377 C   0  0  0  0  0  0  0  0  0  0  0  0
    0.8926   -0.2875   -2.3809 O   0  0  0  0  0  0  0  0  0  0  0  0
    1.4114    0.5758   -1.5129 N   0  0  0  0  0  0  0  0  0  0  0  0
    2.0416   -0.1271   -0.4430 C   0  0  0  0  0  0  0  0  0  0  0  0
    1.6789    0.3690    0.9426 C   0  0  0  0  0  0  0  0  0  0  0  0
    1.9422    1.8195    1.1397 C   0  0  0  0  0  0  0  0  0  0  0  0
    0.1490    0.2025    1.1150 C   0  0  0  0  0  0  0  0  0  0  0  0
   -0.2148   -1.1027    0.8602 O   0  0  0  0  0  0  0  0  0  0  0  0
   -1.5752   -1.2760    1.0427 C   0  0  0  0  0  0  0  0  0  0  0  0
   -2.3285   -0.3685    0.1101 C   0  0  0  0  0  3  0  0  0  0  0  0
   -2.5576    0.9402    0.8334 C   0  0  0  0  0  0  0  0  0  0  0  0
   -3.7892    0.8610    1.5881 N   0  0  0  0  0  0  0  0  0  0  0  0
   -4.8925    0.8004    0.6618 C   0  0  0  0  0  0  0  0  0  0  0  0
   -4.9106    2.0764   -0.1430 C   0  0  1  0  0  0  0  0  0  0  0  0
   -4.0708    1.8675   -1.7351 S   0  0  0  0  0  0  0  0  0  0  0  0
   -6.3380    2.5641   -0.3157 C   0  0  0  0  0  0  0  0  0  0  0  0
   -7.1959    1.8087    0.6733 C   0  0  0  0  0  0  0  0  0  0  0  0
   -8.2864    2.7102    1.1908 C   0  0  0  0  0  0  0  0  0  0  0  0
   -9.5175    2.4847    0.3097 C   0  0  0  0  0  0  0  0  0  0  0  0
   -9.1186    1.7538   -0.9616 C   0  0  0  0  0  0  0  0  0  0  0  0
   -9.7876    0.4066   -1.0506 C   0  0  0  0  0  0  0  0  0  0  0  0
   -9.3076   -0.5332    0.0399 C   0  0  1  0  0  0  0  0  0  0  0  0
  -10.4371   -0.9128    0.9740 C   0  0  0  0  0  2  0  0  0  0  0  0
   -8.6657   -1.7621   -0.5633 C   0  0  0  0  0  0  0  0  0  0  0  0
   -7.1729   -1.6520   -0.3249 C   0  0  0  0  0  0  0  0  0  0  0  0
   -6.4088   -1.4417   -1.6080 C   0  0  0  0  0  3  0  0  0  0  0  0
   -5.5174   -0.2180   -1.5301 C   0  0  0  0  0  0  0  0  0  0  0  0
   -4.6721   -0.3469   -0.2801 C   0  0  2  0  0  0  0  0  0  0  0  0
   -4.8807   -1.6875    0.3919 C   0  0  0  0  0  2  0  0  0  0  0  0
  1  2  1  0
  2  3  1  0
  2  4  1  0
  4  5  1  0
  5  6  1  0
  6  7  1  0
  7  8  1  1
  7  9  1  0
  9 10  1  0
 10 11  1  0
 12 11  1  6
 12 13  1  0
 12 14  1  0
 14 15  1  0
 15 16  1  0
 15 17  1  0
 17 18  1  0
 18 19  1  0
 19 20  1  0
 19 21  1  0
 21 22  1  0
 22 23  1  0
 23 24  1  0
 24 25  1  0
 25 26  1  0
 26 27  1  0
 27 28  1  0
 28 29  1  0
 28 30  1  0
 30 31  1  0
 31 32  1  0
 32 33  1  0
 33 34  1  0
 34 35  1  0
 35 36  1  0
 36 37  1  0
 37 38  1  6
 37 39  1  0
 39 40  1  0
 40 41  1  0
 41 42  1  0
 42 43  1  0
 43 44  1  0
 44 45  1  0
 45 46  1  6
 45 47  1  0
 47 48  1  0
 48 49  1  0
 49 50  1  0
 50 51  1  0
 51 52  1  1
 28 13  1  0
 22 18  1  0
 27 23  1  0
 51 36  1  0
M  RAD  5   9   2  33   2  46   3  49   2  52   3
M  END
$$$$
