
     RDKit          3D

 27 28  0  0  0  0  0  0  0  0999 V2000
   -0.1778    2.5524    0.3674 N   0  0  0  0  0  0  0  0  0  0  0  0
   -1.3515    1.8426    0.1147 N   0  0  0  0  0  0  0  0  0  0  0  0
   -1.4208    0.5050   -0.2657 C   0  0  0  0  0  0  0  0  0  0  0  0
   -2.4393    0.0900   -1.0280 C   0  0  0  0  0  0  0  0  0  0  0  0
   -3.4139    0.9827   -1.4337 O   0  0  0  0  0  0  0  0  0  0  0  0
   -4.0398    1.8475   -0.5605 N   0  0  0  0  0  0  0  0  0  0  0  0
   -3.9480    3.2258   -0.9909 C   0  0  0  0  0  0  0  0  0  0  0  0
   -4.6281    4.0386   -0.0165 N   0  0  0  0  0  0  0  0  0  0  0  0
   -4.5139    5.7544   -0.5520 P   0  0  0  0  0  0  0  0  0  0  0  0
    0.6004    2.0011    1.4260 C   0  0  0  0  0  0  0  0  0  0  0  0
    0.7684    0.2327    1.0879 S   0  0  0  0  0  0  0  0  0  0  0  0
   -0.3851   -0.4260    0.1728 C   0  0  0  0  0  0  0  0  0  0  0  0
    0.0735   -1.7921    0.1294 N   0  0  0  0  0  4  0  0  0  0  0  0
   -0.9132   -2.8513    1.3474 Br  0  0  0  0  0  0  0  0  0  0  0  0
    1.2721   -1.4068    0.6786 N   0  0  0  0  0  3  0  0  0  0  0  0
    2.4082   -1.5860   -0.0801 N   0  0  0  0  0  0  0  0  0  0  0  0
    2.7266   -0.9032   -1.2603 C   0  0  0  0  0  0  0  0  0  0  0  0
    3.5364    0.1402   -1.2614 C   0  0  0  0  0  0  0  0  0  0  0  0
    4.2375    0.6864    0.2842 S   0  0  0  0  0  0  0  0  0  0  0  0
    5.9630    0.6463    0.2343 O   0  0  0  0  0  0  0  0  0  0  0  0
    6.4730    1.8075    0.7174 N   0  0  0  0  0  2  0  0  0  0  0  0
    8.0100    2.1351   -0.0286 Cl  0  0  0  0  0  0  0  0  0  0  0  0
    0.2274   -2.3192   -1.1328 N   0  0  0  0  0  0  0  0  0  0  0  0
   -1.2619   -2.9739   -1.7968 S   0  0  0  0  0  0  0  0  0  0  0  0
   -1.5762   -4.5873   -1.2461 O   0  0  0  0  0  0  0  0  0  0  0  0
   -2.6628   -4.7569   -0.4081 C   0  0  0  0  0  0  0  0  0  0  0  0
   -3.5641   -4.8855    0.3061 N   0  0  0  0  0  0  0  0  0  0  0  0
  1  2  1  0
  2  3  1  0
  3  4  2  3
  4  5  1  0
  5  6  1  0
  6  7  1  0
  7  8  1  0
  8  9  1  0
  1 10  1  0
 10 11  1  0
 11 12  2  0
 12 13  1  0
 13 14  1  0
 13 15  1  0
 15 16  1  0
 16 17  1  0
 17 18  2  3
 18 19  1  0
 19 20  1  0
 20 21  1  0
 21 22  1  0
 13 23  1  0
 23 24  1  0
 24 25  1  0
 25 26  1  0
 26 27  3  0
 12  3  1  0
 15 11  1  0
M  CHG  3  13   1  15   1  21   1
M  RAD  2  15   2  21   3
M  END
$$$$
