
     RDKit          2D

 26 37  0  0  0  0  0  0  0  0999 V2000
    2.3371    5.0749    0.0000 C   0  0  0  0  0  0  0  0  0  0  0  0
    1.1207    4.1973    0.0000 C   0  0  0  0  0  0  0  0  0  0  0  0
    2.4962    3.5123    0.0000 C   0  0  0  0  0  0  0  0  0  0  0  0
    3.7468    4.5623    0.0000 C   0  0  0  0  0  0  0  0  0  0  0  0
    4.8685    3.5664    0.0000 C   0  0  0  0  0  0  0  0  0  0  0  0
    3.9245    2.4007    0.0000 C   0  0  0  0  0  0  0  0  0  0  0  0
    2.4757    2.0125    0.0000 C   0  0  0  0  0  0  0  0  0  0  0  0
    1.0753    2.5500    0.0000 C   0  0  0  0  0  0  0  0  0  0  0  0
    0.3943    1.2135    0.0000 C   0  0  0  0  0  0  0  0  0  0  0  0
   -0.0692    2.6401    0.0000 C   0  0  0  0  0  0  0  0  0  0  0  0
    1.2760    0.0000    0.0000 C   0  0  0  0  0  0  0  0  0  0  0  0
    0.3943   -1.2135    0.0000 C   0  0  0  0  0  0  0  0  0  0  0  0
   -1.0323   -0.7500    0.0000 C   0  0  0  0  0  0  0  0  0  0  0  0
   -1.0323    0.7500    0.0000 C   0  0  0  0  0  0  0  0  0  0  0  0
   -1.4958    2.1766    0.0000 C   0  0  0  0  0  0  0  0  0  0  0  0
   -1.2396    3.7295    0.0000 C   0  0  0  0  0  0  0  0  0  0  0  0
   -2.0566    4.9875    0.0000 C   0  0  0  0  0  0  0  0  0  0  0  0
   -1.3756    6.3241    0.0000 C   0  0  0  0  0  0  0  0  0  0  0  0
    0.1224    6.4026    0.0000 C   0  0  0  0  0  0  0  0  0  0  0  0
    0.9393    5.1446    0.0000 C   0  0  0  0  0  0  0  0  0  0  0  0
    0.2583    3.8080    0.0000 C   0  0  0  0  0  0  0  0  0  0  0  0
    1.7068    4.2110    0.0000 C   0  0  0  0  0  0  0  0  0  0  0  0
    1.7911    4.2578    0.0000 C   0  0  0  0  0  0  0  0  0  0  0  0
    3.3947    4.6874    0.0000 C   0  0  0  0  0  0  0  0  0  0  0  0
    3.4911    4.6891    0.0000 C   0  0  0  0  0  0  0  0  0  0  0  0
    4.9470    5.0644    0.0000 C   0  0  0  0  0  0  0  0  0  0  0  0
  1  2  2  0
  2  3  1  0
  3  4  1  0
  4  5  1  0
  5  6  1  0
  6  7  1  0
  7  8  1  0
  8  9  1  0
  9 10  1  0
  9 11  1  0
 11 12  2  0
 12 13  1  0
 13 14  1  0
 14 15  1  0
 15 16  1  0
 16 17  1  0
 17 18  2  0
 18 19  1  0
 19 20  1  0
 20 21  1  0
 21 22  1  0
 22 23  1  0
 23 24  1  0
 24 25  2  3
 25 26  1  0
  3  1  1  0
  4  1  1  0
 15  2  1  0
  7  3  1  0
 17  4  1  0
  5 26  2  0
 21  8  1  0
 14  9  1  0
 15 10  1  0
 18 13  1  0
 26 13  1  0
 21 16  1  0
M  END
$$$$
