
     RDKit          3D

 23 24  0  0  0  0  0  0  0  0999 V2000
    5.5385    0.6513   -1.6578 C   0  0  0  0  0  0  0  0  0  0  0  0
    4.6985   -0.5658   -1.3411 C   0  0  0  0  0  0  0  0  0  0  0  0
    3.3245   -0.4483   -1.8970 C   0  0  0  0  0  0  0  0  0  0  0  0
    4.6471   -0.7208    0.1251 C   0  0  0  0  0  0  0  0  0  0  0  0
    3.6095   -0.6039    0.8925 C   0  0  0  0  0  0  0  0  0  0  0  0
    2.2531   -0.3061    0.6126 C   0  0  0  0  0  0  0  0  0  0  0  0
    1.2574   -1.2688    0.7666 O   0  0  0  0  0  0  0  0  0  0  0  0
    0.1724   -1.2603   -0.0768 C   0  0  0  0  0  0  0  0  0  0  0  0
   -1.0570   -1.0641    0.4688 C   0  0  0  0  0  0  0  0  0  0  0  0
   -1.1100   -0.8438    2.1968 Cl  0  0  0  0  0  0  0  0  0  0  0  0
   -2.1555   -1.1061   -0.4289 C   0  0  0  0  0  0  0  0  0  0  0  0
   -3.4263   -0.9447   -0.2344 C   0  0  0  0  0  0  0  0  0  0  0  0
   -4.3899   -0.6679    0.7776 C   0  0  0  0  0  0  0  0  0  0  0  0
   -4.6018    0.7646    1.2457 C   0  0  0  0  0  0  0  0  0  0  0  0
   -3.4687    1.4525    1.8092 C   0  0  0  0  0  0  0  0  0  0  0  0
   -3.0319    2.5834    1.2237 C   0  0  0  0  0  0  0  0  0  0  0  0
   -4.5211   -1.1384   -1.1477 C   0  0  0  0  0  0  0  0  0  0  0  0
   -5.3881   -0.9216   -0.2678 C   0  0  0  0  0  0  0  0  0  0  0  0
   -6.7771   -0.8984   -0.2220 O   0  0  0  0  0  0  0  0  0  0  0  0
    1.8672    0.8803    0.1989 C   0  0  0  0  0  0  0  0  0  0  0  0
    2.8009    2.3536   -0.1165 S   0  0  0  0  0  0  0  0  0  0  0  0
    4.3690    2.5119   -0.4287 C   0  0  0  0  0  0  0  0  0  0  0  0
    5.3893    1.5616   -0.5329 N   0  0  0  0  0  0  0  0  0  0  0  0
  1  2  1  0
  2  3  1  0
  2  4  1  0
  4  5  2  3
  5  6  1  0
  6  7  1  0
  7  8  1  0
  8  9  2  3
  9 10  1  0
  9 11  1  0
 11 12  2  3
 12 13  1  0
 13 14  1  0
 14 15  1  0
 15 16  2  0
 12 17  1  0
 17 18  2  0
 18 19  1  0
  6 20  2  3
 20 21  1  0
 21 22  2  3
 22 23  1  0
 23  1  1  0
 18 13  1  0
M  END
$$$$
