
     RDKit          2D

 76 77  0  0  0  0  0  0  0  0999 V2000
    9.1771    3.8971    0.0000 C   0  0  0  0  0  0  0  0  0  0  0  0
    8.4271    2.5981    0.0000 C   0  0  0  0  0  0  0  0  0  0  0  0
    9.1771    1.2990    0.0000 C   0  0  0  0  0  0  0  0  0  0  0  0
    6.9271    2.5981    0.0000 C   0  0  0  0  0  0  0  0  0  0  0  0
    6.1771    1.2990    0.0000 C   0  0  0  0  0  0  0  0  0  0  0  0
    4.6771    1.2990    0.0000 C   0  0  0  0  0  0  0  0  0  0  0  0
    3.9271    0.0000    0.0000 C   0  0  0  0  0  0  0  0  0  0  0  0
    4.6771   -1.2990    0.0000 C   0  0  0  0  0  0  0  0  0  0  0  0
    2.4271    0.0000    0.0000 C   0  0  0  0  0  0  0  0  0  0  0  0
    1.9635   -1.4266    0.0000 C   0  0  0  0  0  0  0  0  0  0  0  0
    0.7500   -2.3083    0.0000 C   0  0  0  0  0  0  0  0  0  0  0  0
   -0.7500   -2.3083    0.0000 C   0  0  0  0  0  0  0  0  0  0  0  0
   -1.2135   -3.7348    0.0000 C   0  0  0  0  0  0  0  0  0  0  0  0
   -1.9635   -1.4266    0.0000 C   0  0  0  0  0  0  0  0  0  0  0  0
   -2.5254   -2.8174    0.0000 C   0  0  0  0  0  0  0  0  0  0  0  0
   -3.8499   -3.5216    0.0000 C   0  0  0  0  0  0  0  0  0  0  0  0
   -3.6411   -5.0070    0.0000 C   0  0  0  0  0  2  0  0  0  0  0  0
   -5.3171   -3.2097    0.0000 C   0  0  0  0  0  0  0  0  0  0  0  0
   -6.2406   -2.0277    0.0000 C   0  0  0  0  0  0  0  0  0  0  0  0
   -6.1882   -0.5286    0.0000 C   0  0  0  0  0  0  0  0  0  0  0  0
   -7.5790    0.0333    0.0000 O   0  0  0  0  0  0  0  0  0  0  0  0
   -5.1845    0.5861    0.0000 C   0  0  0  0  0  3  0  0  0  0  0  0
   -3.6991    0.7949    0.0000 C   0  0  0  0  0  0  0  0  0  0  0  0
   -3.3873    2.2621    0.0000 C   0  0  0  0  0  0  0  0  0  0  0  0
   -2.4271    0.0000    0.0000 C   0  0  0  0  0  0  0  0  0  0  0  0
   -1.9635    1.4266    0.0000 C   0  0  0  0  0  0  0  0  0  0  0  0
   -0.7500    2.3083    0.0000 C   0  0  0  0  0  0  0  0  0  0  0  0
    0.7500    2.3083    0.0000 C   0  0  0  0  0  0  0  0  0  0  0  0
    1.9635    1.4266    0.0000 C   0  0  0  0  0  0  0  0  0  0  0  0
    3.1771    2.3083    0.0000 N   0  0  0  0  0  0  0  0  0  0  0  0
    3.0203    3.8000    0.0000 C   0  0  0  0  0  3  0  0  0  0  0  0
    4.2338    4.6817    0.0000 C   0  0  0  0  0  0  0  0  0  0  0  0
    4.0770    6.1735    0.0000 C   0  0  0  0  0  0  0  0  0  0  0  0
    5.2905    7.0552    0.0000 C   0  0  0  0  0  0  0  0  0  0  0  0
    5.1337    8.5470    0.0000 C   0  0  0  0  0  0  0  0  0  0  0  0
    6.6608    6.4451    0.0000 C   0  0  0  0  0  0  0  0  0  0  0  0
    7.8744    7.3268    0.0000 C   0  0  0  0  0  0  0  0  0  0  0  0
    6.8176    4.9533    0.0000 C   0  0  0  0  0  0  0  0  0  0  0  0
    8.1879    4.3432    0.0000 C   0  0  0  0  0  0  0  0  0  0  0  0
    9.4015    5.2249    0.0000 C   0  0  0  0  0  0  0  0  0  0  0  0
   10.7718    4.6148    0.0000 C   0  0  0  0  0  3  0  0  0  0  0  0
   11.9853    5.4964    0.0000 C   0  0  0  0  0  0  0  0  0  0  0  0
   13.3556    4.8863    0.0000 C   0  0  0  0  0  0  0  0  0  0  0  0
   14.5692    5.7680    0.0000 C   0  0  0  0  0  2  0  0  0  0  0  0
   13.5124    3.3946    0.0000 C   0  0  0  0  0  0  0  0  0  0  0  0
   14.8827    2.7844    0.0000 C   0  0  0  0  0  0  0  0  0  0  0  0
   15.0395    1.2927    0.0000 C   0  0  0  0  0  0  0  0  0  0  0  0
   16.4099    0.6826    0.0000 C   0  0  0  0  0  3  0  0  0  0  0  0
   16.5666   -0.8092    0.0000 C   0  0  0  0  0  0  0  0  0  0  0  0
   17.9370   -1.4193    0.0000 C   0  0  0  0  0  0  0  0  0  0  0  0
   18.0938   -2.9111    0.0000 C   0  0  0  0  0  0  0  0  0  0  0  0
   19.4641   -3.5212    0.0000 C   0  0  0  0  0  0  0  0  0  0  0  0
   16.8802   -3.7928    0.0000 C   0  0  0  0  0  0  0  0  0  0  0  0
   17.0370   -5.2846    0.0000 C   0  0  0  0  0  3  0  0  0  0  0  0
   15.8235   -6.1662    0.0000 C   0  0  0  0  0  2  0  0  0  0  0  0
   15.5099   -3.1827    0.0000 C   0  0  0  0  0  0  0  0  0  0  0  0
   14.2964   -4.0644    0.0000 C   0  0  0  0  0  0  0  0  0  0  0  0
   12.9261   -3.4543    0.0000 C   0  0  0  0  0  0  0  0  0  0  0  0
   12.7693   -1.9625    0.0000 C   0  0  0  0  0  0  0  0  0  0  0  0
   11.7125   -4.3359    0.0000 C   0  0  0  0  0  0  0  0  0  0  0  0
   11.8693   -5.8277    0.0000 C   0  0  0  0  0  0  0  0  0  0  0  0
   10.6558   -6.7094    0.0000 C   0  0  0  0  0  0  0  0  0  0  0  0
   10.8126   -8.2012    0.0000 C   0  0  0  0  0  0  0  0  0  0  0  0
    9.2855   -6.0993    0.0000 C   0  0  0  0  0  0  0  0  0  0  0  0
    8.0720   -6.9810    0.0000 C   0  0  0  0  0  2  0  0  0  0  0  0
    9.1287   -4.6075    0.0000 C   0  0  0  0  0  0  0  0  0  0  0  0
   10.3422   -3.7258    0.0000 C   0  0  0  0  0  0  0  0  0  0  0  0
   10.1854   -2.2340    0.0000 C   0  0  0  0  0  3  0  0  0  0  0  0
    8.8151   -1.6239    0.0000 C   0  0  0  0  0  0  0  0  0  0  0  0
    7.6016   -2.5056    0.0000 C   0  0  0  0  0  3  0  0  0  0  0  0
    6.2313   -1.8955    0.0000 C   0  0  0  0  0  0  0  0  0  0  0  0
    5.0177   -2.7772    0.0000 C   0  0  0  0  0  0  0  0  0  0  0  0
    6.0745   -0.4037    0.0000 C   0  0  0  0  0  0  0  0  0  0  0  0
    4.7042    0.2064    0.0000 C   0  0  0  0  0  0  0  0  0  0  0  0
    7.2880    0.4779    0.0000 C   0  0  0  0  0  0  0  0  0  0  0  0
    8.6583   -0.1322    0.0000 C   0  0  0  0  0  2  0  0  0  0  0  0
  1  2  1  0
  2  3  1  0
  2  4  1  0
  4  5  1  0
  5  6  1  0
  6  7  1  0
  7  8  1  1
  7  9  1  0
  9 10  1  1
 10 11  1  0
 11 12  1  0
 12 13  1  6
 12 14  1  0
 14 15  1  1
 15 16  1  0
 16 17  1  0
 16 18  1  0
 18 19  1  0
 19 20  1  0
 20 21  1  0
 20 22  1  0
 22 23  1  0
 23 24  1  1
 23 25  1  0
 25 26  1  1
 26 27  1  0
 27 28  1  0
 28 29  1  0
 29 30  1  1
 30 31  1  0
 31 32  1  0
 32 33  1  0
 33 34  1  0
 34 35  1  1
 34 36  1  0
 36 37  1  1
 36 38  1  0
 38 39  1  0
 39 40  1  0
 40 41  1  0
 41 42  1  0
 42 43  1  0
 43 44  1  1
 43 45  1  0
 45 46  1  0
 46 47  1  0
 47 48  1  0
 48 49  1  0
 49 50  1  0
 50 51  1  0
 51 52  1  0
 51 53  1  0
 53 54  1  6
 54 55  1  0
 53 56  1  0
 56 57  1  0
 57 58  1  0
 58 59  1  6
 58 60  1  0
 60 61  1  0
 61 62  1  0
 62 63  1  0
 62 64  1  0
 64 65  1  6
 64 66  1  0
 66 67  1  0
 67 68  1  0
 68 69  1  0
 69 70  1  0
 70 71  1  0
 71 72  1  6
 71 73  1  0
 73 74  1  6
 73 75  1  0
 75 76  1  0
 29  9  1  0
 25 14  1  0
M  RAD  8  17   3  22   2  31   2  41   2  44   3  48   2  54   2  55   3
M  RAD  4  65   3  68   2  70   2  76   3
M  END
$$$$
