
     RDKit          3D

  7  6  0  0  0  0  0  0  0  0999 V2000
   -1.6922   -0.3902   -0.9920 O   0  0  0  0  0  0  0  0  0  0  0  0
   -1.1437    0.1763   -0.0110 C   0  0  0  0  0  0  0  0  0  0  0  0
   -1.8596    0.9148    0.9233 O   0  0  0  0  0  0  0  0  0  0  0  0
    0.2741    0.0749    0.1782 C   0  0  0  0  0  0  0  0  0  0  0  0
    1.1080   -0.7019   -0.7849 C   0  0  0  0  0  0  0  0  0  0  0  0
    2.4544   -0.6875   -0.4399 O   0  0  0  0  0  0  0  0  0  0  0  0
    0.8591    0.6136    1.1263 O   0  0  0  0  0  0  0  0  0  0  0  0
  1  2  2  0
  2  3  1  0
  2  4  1  0
  4  5  1  0
  5  6  1  0
  4  7  2  0
M  END
$$$$
