
     RDKit          2D

 86 86  0  0  0  0  0  0  0  0999 V2000
    5.2700    0.0000    0.0000 C   0  0  0  0  0  0  0  0  0  0  0  0
    5.0565   -1.4847    0.0000 C   0  0  0  0  0  0  0  0  0  0  0  0
    6.4958   -1.9073    0.0000 C   0  0  0  0  0  0  0  0  0  0  0  0
    4.4334   -2.8492    0.0000 C   0  0  0  0  0  0  0  0  0  0  0  0
    3.4511   -3.9828    0.0000 C   0  0  0  0  0  0  0  0  0  0  0  0
    2.1892   -4.7938    0.0000 C   0  0  0  0  0  0  0  0  0  0  0  0
    0.7500   -5.2164    0.0000 C   0  0  0  0  0  0  0  0  0  0  0  0
    0.9635   -6.7011    0.0000 C   0  0  0  0  0  0  0  0  0  0  0  0
   -0.7500   -5.2164    0.0000 C   0  0  0  0  0  3  0  0  0  0  0  0
   -2.1892   -4.7938    0.0000 C   0  0  0  0  0  0  0  0  0  0  0  0
   -3.4511   -3.9828    0.0000 C   0  0  0  0  0  0  0  0  0  0  0  0
   -4.4334   -2.8492    0.0000 C   0  0  0  0  0  0  0  0  0  0  0  0
   -5.6953   -3.6601    0.0000 C   0  0  0  0  0  0  0  0  0  0  0  0
   -5.0565   -1.4847    0.0000 C   0  0  0  0  0  0  0  0  0  0  0  0
   -5.2700    0.0000    0.0000 C   0  0  0  0  0  0  0  0  0  0  0  0
   -5.0565    1.4847    0.0000 C   0  0  0  0  0  0  0  0  0  0  0  0
   -6.4958    1.9073    0.0000 C   0  0  0  0  0  0  0  0  0  0  0  0
   -4.4334    2.8492    0.0000 C   0  0  0  0  0  0  0  0  0  0  0  0
   -3.4511    3.9828    0.0000 C   0  0  0  0  0  0  0  0  0  0  0  0
   -4.4334    5.1164    0.0000 C   0  0  0  0  0  0  0  0  0  0  0  0
   -2.1892    4.7938    0.0000 C   0  0  0  0  0  0  0  0  0  0  0  0
   -0.7500    5.2164    0.0000 C   0  0  0  0  0  0  0  0  0  0  0  0
    0.7500    5.2164    0.0000 C   0  0  0  0  0  0  0  0  0  0  0  0
    0.9635    6.7011    0.0000 C   0  0  0  0  0  0  0  0  0  0  0  0
    2.1892    4.7938    0.0000 O   0  0  0  0  0  0  0  0  0  0  0  0
    3.4511    3.9828    0.0000 C   0  0  0  0  0  0  0  0  0  0  0  0
    4.4334    2.8492    0.0000 C   0  0  0  0  0  0  0  0  0  0  0  0
    5.0565    1.4847    0.0000 C   0  0  0  0  0  0  0  0  0  0  0  0
    6.4958    1.9073    0.0000 C   0  0  0  0  0  0  0  0  0  0  0  0
    6.8494    3.3650    0.0000 C   0  0  0  0  0  0  0  0  0  0  0  0
    8.2887    3.7876    0.0000 C   0  0  0  0  0  0  0  0  0  0  0  0
    8.6423    5.2454    0.0000 C   0  0  0  0  0  0  0  0  0  0  0  0
   10.0815    5.6680    0.0000 C   0  0  0  0  0  0  0  0  0  0  0  0
   10.4352    7.1257    0.0000 C   0  0  0  0  0  0  0  0  0  0  0  0
   11.1671    4.6328    0.0000 C   0  0  0  0  0  0  0  0  0  0  0  0
   12.2022    5.7184    0.0000 C   0  0  0  0  0  0  0  0  0  0  0  0
   10.1320    3.5472    0.0000 C   0  0  0  0  0  0  0  0  0  0  0  0
   12.2527    3.5977    0.0000 C   0  0  0  0  0  0  0  0  0  0  0  0
   11.8991    2.1400    0.0000 C   0  0  0  0  0  0  0  0  0  0  0  0
   12.9847    1.1049    0.0000 C   0  0  0  0  0  0  0  0  0  0  0  0
   12.6311   -0.3528    0.0000 C   0  0  0  0  0  0  0  0  0  0  0  0
   13.7167   -1.3879    0.0000 C   0  0  0  0  0  0  0  0  0  0  0  0
   11.1918   -0.7754    0.0000 C   0  0  0  0  0  0  0  0  0  0  0  0
   10.8382   -2.2331    0.0000 C   0  0  0  0  0  0  0  0  0  0  0  0
    9.3989   -2.6557    0.0000 C   0  0  0  0  0  0  0  0  0  0  0  0
    9.8215   -4.0950    0.0000 C   0  0  0  0  0  0  0  0  0  0  0  0
    8.9763   -1.2165    0.0000 C   0  0  0  0  0  0  0  0  0  0  0  0
    7.9597   -3.0783    0.0000 C   0  0  0  0  0  0  0  0  0  0  0  0
    7.6061   -4.5361    0.0000 C   0  0  0  0  0  0  0  0  0  0  0  0
    6.1668   -4.9587    0.0000 C   0  0  0  0  0  0  0  0  0  0  0  0
    5.8132   -6.4164    0.0000 C   0  0  0  0  0  0  0  0  0  0  0  0
    4.3739   -6.8390    0.0000 C   0  0  0  0  0  0  0  0  0  0  0  0
    4.0203   -8.2967    0.0000 C   0  0  0  0  0  0  0  0  0  0  0  0
    3.2883   -5.8039    0.0000 C   0  0  0  0  0  3  0  0  0  0  0  0
    1.8491   -6.2265    0.0000 C   0  0  0  0  0  0  0  0  0  0  0  0
    1.4955   -7.6842    0.0000 C   0  0  0  0  0  0  0  0  0  0  0  0
    0.0562   -8.1068    0.0000 C   0  0  0  0  0  2  0  0  0  0  0  0
   -0.2974   -9.5645    0.0000 C   0  0  0  0  0  0  0  0  0  0  0  0
   -1.7367   -9.9871    0.0000 C   0  0  0  0  0  0  0  0  0  0  0  0
   -2.0903  -11.4448    0.0000 C   0  0  0  0  0  0  0  0  0  0  0  0
   -3.5295  -11.8674    0.0000 C   0  0  0  0  0  0  0  0  0  0  0  0
   -3.8832  -13.3251    0.0000 C   0  0  0  0  0  0  0  0  0  0  0  0
   -5.3224  -13.7477    0.0000 C   0  0  0  0  0  0  0  0  0  0  0  0
   -2.7976  -14.3602    0.0000 C   0  0  0  0  0  3  0  0  0  0  0  0
   -3.1512  -15.8180    0.0000 C   0  0  0  0  0  0  0  0  0  0  0  0
   -2.0656  -16.8531    0.0000 C   0  0  0  0  0  0  0  0  0  0  0  0
   -2.4192  -18.3108    0.0000 C   0  0  0  0  0  0  0  0  0  0  0  0
   -1.3336  -19.3459    0.0000 C   0  0  0  0  0  0  0  0  0  0  0  0
   -1.6873  -20.8036    0.0000 C   0  0  0  0  0  0  0  0  0  0  0  0
   -0.6017  -21.8387    0.0000 C   0  0  0  0  0  0  0  0  0  0  0  0
   -0.9553  -23.2965    0.0000 C   0  0  0  0  0  0  0  0  0  0  0  0
    0.1303  -24.3316    0.0000 C   0  0  0  0  0  0  0  0  0  0  0  0
   -0.2234  -25.7893    0.0000 C   0  0  0  0  0  0  0  0  0  0  0  0
    0.8622  -26.8244    0.0000 C   0  0  0  0  0  0  0  0  0  0  0  0
    0.5086  -28.2821    0.0000 C   0  0  0  0  0  0  0  0  0  0  0  0
    1.5942  -29.3173    0.0000 C   0  0  0  0  0  0  0  0  0  0  0  0
    1.2406  -30.7750    0.0000 C   0  0  0  0  0  0  0  0  0  0  0  0
    2.3262  -31.8101    0.0000 C   0  0  0  0  0  0  0  0  0  0  0  0
    1.9725  -33.2678    0.0000 C   0  0  0  0  0  0  0  0  0  0  0  0
    3.0581  -34.3029    0.0000 C   0  0  0  0  0  0  0  0  0  0  0  0
    2.7045  -35.7606    0.0000 C   0  0  0  0  0  0  0  0  0  0  0  0
    3.7901  -36.7958    0.0000 S   0  0  0  0  0  0  0  0  0  0  0  0
    3.4365  -38.2535    0.0000 C   0  0  0  0  0  0  0  0  0  0  0  0
    4.5221  -39.2886    0.0000 C   0  0  0  0  0  0  0  0  0  0  0  0
    4.1684  -40.7463    0.0000 C   0  0  0  0  0  3  0  0  0  0  0  0
    5.2540  -41.7814    0.0000 C   0  0  0  0  0  0  0  0  0  0  0  0
  1  2  1  0
  2  3  1  0
  2  4  1  0
  4  5  1  0
  5  6  1  0
  6  7  1  0
  7  8  1  1
  7  9  1  0
  9 10  1  0
 10 11  1  0
 11 12  1  0
 12 13  1  6
 12 14  1  0
 14 15  1  0
 15 16  1  0
 16 17  1  0
 16 18  1  0
 18 19  1  0
 19 20  1  0
 19 21  1  0
 21 22  1  0
 22 23  1  0
 23 24  1  0
 23 25  1  0
 25 26  1  0
 26 27  1  0
 27 28  1  0
 28 29  1  0
 29 30  1  0
 30 31  1  0
 31 32  1  0
 32 33  1  0
 33 34  1  0
 33 35  1  0
 35 36  1  0
 35 37  1  0
 35 38  1  0
 38 39  1  0
 39 40  1  0
 40 41  1  0
 41 42  1  0
 41 43  1  0
 43 44  1  0
 44 45  1  0
 45 46  1  0
 45 47  1  0
 45 48  1  0
 48 49  1  0
 49 50  1  0
 50 51  1  0
 51 52  1  0
 52 53  1  0
 52 54  1  0
 54 55  1  0
 55 56  1  0
 56 57  1  0
 57 58  1  0
 58 59  1  0
 59 60  1  0
 60 61  1  0
 61 62  1  0
 62 63  1  0
 62 64  1  0
 64 65  1  0
 65 66  1  0
 66 67  1  0
 67 68  1  0
 68 69  1  0
 69 70  1  0
 70 71  1  0
 71 72  1  0
 72 73  1  0
 73 74  1  0
 74 75  1  0
 75 76  1  0
 76 77  1  0
 77 78  1  0
 78 79  1  0
 79 80  1  0
 80 81  1  0
 81 82  2  3
 82 83  1  0
 83 84  1  0
 84 85  2  3
 85 86  1  0
 28  1  1  0
M  RAD  5   9   2  54   2  57   3  64   2  85   2
M  END
$$$$
