
     RDKit          2D

 25 28  0  0  0  0  0  0  0  0999 V2000
   -3.3699    6.1567    0.0000 C   0  0  0  0  0  0  0  0  0  0  0  0
   -2.8481    4.7503    0.0000 O   0  0  0  0  0  0  0  0  0  0  0  0
    0.2648    3.3435    0.0000 C   0  0  0  0  0  0  0  0  0  0  0  0
    0.0837    3.3105    0.0000 C   0  0  0  0  0  0  0  0  0  0  0  0
    1.2933    3.5972    0.0000 C   0  0  0  0  0  0  0  0  0  0  0  0
    1.0311    3.4945    0.0000 C   0  0  0  0  0  0  0  0  0  0  0  0
    3.3846    6.1729    0.0000 N   0  0  0  0  0  0  0  0  0  0  0  0
    2.2505    3.7867    0.0000 C   0  0  0  0  0  0  0  0  0  0  0  0
    2.2505    2.2867    0.0000 C   0  0  0  0  0  0  0  0  0  0  0  0
    3.5565    3.0320    0.0000 C   0  0  0  0  0  0  0  0  0  0  0  0
    3.6686    4.5278    0.0000 C   0  0  0  0  0  0  0  0  0  0  0  0
    5.0200    5.1786    0.0000 Br  0  0  0  0  0  0  0  0  0  0  0  0
    2.4292    5.3727    0.0000 C   0  0  0  0  0  0  0  0  0  0  0  0
    1.0777    4.7219    0.0000 C   0  0  0  0  0  0  0  0  0  0  0  0
   -0.3846    4.3881    0.0000 C   0  0  0  0  0  0  0  0  0  0  0  0
   -1.0083    5.7523    0.0000 Br  0  0  0  0  0  0  0  0  0  0  0  0
   -1.0355    3.0367    0.0000 C   0  0  0  0  0  0  0  0  0  0  0  0
   -0.3846    1.6852    0.0000 C   0  0  0  0  0  0  0  0  0  0  0  0
    1.0777    1.3515    0.0000 C   0  0  0  0  0  0  0  0  0  0  0  0
    1.7286    0.0000    0.0000 C   0  0  0  0  0  0  0  0  0  0  0  0
    1.0777   -1.3515    0.0000 C   0  0  0  0  0  0  0  0  0  0  0  0
   -0.3846   -1.6852    0.0000 C   0  0  0  0  0  0  0  0  0  0  0  0
   -1.5574   -0.7500    0.0000 C   0  0  0  0  0  0  0  0  0  0  0  0
   -1.5574    0.7500    0.0000 C   0  0  0  0  0  0  0  0  0  0  0  0
   -2.9088    1.4008    0.0000 Cl  0  0  0  0  0  0  0  0  0  0  0  0
  1  2  1  0
  2  3  1  0
  3  4  2  3
  4  5  1  0
  5  6  2  3
  6  7  1  0
  6  8  1  0
  8  9  2  0
  9 10  1  0
 10 11  2  0
 11 12  1  0
 11 13  1  0
 13 14  2  0
 14 15  1  0
 15 16  1  0
 15 17  2  0
 17 18  1  0
 18 19  2  0
 19 20  1  0
 20 21  1  0
 21 22  1  0
 22 23  1  0
 23 24  2  0
 24 25  1  0
 17  3  1  0
 14  8  1  0
 19  9  1  0
 24 18  1  0
M  END
$$$$
