
     RDKit          3D

 31 33  0  0  0  0  0  0  0  0999 V2000
   -5.0994    0.7114    3.2004 C   0  0  0  0  0  0  0  0  0  0  0  0
   -4.9383    1.3560    1.8825 O   0  0  0  0  0  0  0  0  0  0  0  0
   -5.9724    0.9687    0.9715 C   0  0  0  0  0  0  0  0  0  0  0  0
   -7.1985    0.8129    1.0955 C   0  0  0  0  0  0  0  0  0  0  0  0
   -7.9878    0.2940    0.0568 C   0  0  0  0  0  0  0  0  0  0  0  0
   -7.4242   -0.1157   -1.0493 C   0  0  0  0  0  0  0  0  0  0  0  0
   -6.0664    0.0308   -1.2693 C   0  0  0  0  0  0  0  0  0  0  0  0
   -5.2821    0.6741   -0.2077 C   0  0  0  0  0  0  0  0  0  0  0  0
   -3.9909    0.8279   -0.5861 O   0  0  0  0  0  0  0  0  0  0  0  0
   -2.7116    0.6513   -0.2409 C   0  0  0  0  0  0  0  0  0  0  0  0
   -2.7866   -0.7889   -0.6880 O   0  0  0  0  0  0  0  0  0  0  0  0
   -1.7371   -1.0215   -1.4909 C   0  0  0  0  0  0  0  0  0  0  0  0
   -0.5328   -1.2113   -0.6716 N   0  0  0  0  0  0  0  0  0  0  0  0
   -1.0126   -1.3755    0.6948 C   0  0  0  0  0  0  0  0  0  0  0  0
   -2.2523    0.7756    1.0390 C   0  0  0  0  0  0  0  0  0  0  0  0
   -1.0992   -0.1013    1.4517 C   0  0  0  0  0  0  0  0  0  0  0  0
    0.1506    0.5985    1.5689 N   0  0  0  0  0  0  0  0  0  0  0  0
    1.2261   -0.2946    1.7237 N   0  0  0  0  0  0  0  0  0  0  0  0
    2.1968   -0.3785    0.9743 C   0  0  0  0  0  0  0  0  0  0  0  0
    2.5768    0.3870   -0.2360 C   0  0  0  0  0  0  0  0  0  0  0  0
    3.3481    1.5674    0.1716 C   0  0  0  0  0  0  0  0  0  0  0  0
    1.2130    0.9571   -0.8350 C   0  0  0  0  0  0  0  0  0  0  0  0
    3.2932   -0.4099   -1.2034 C   0  0  0  0  0  0  0  0  0  0  0  0
    4.1034    0.3714   -2.2969 C   0  0  0  0  0  0  0  0  0  0  0  0
    5.3997    0.7607   -1.4184 C   0  0  0  0  0  0  0  0  0  0  0  0
    5.8144   -0.6185   -0.7287 C   0  0  0  0  0  0  0  0  0  0  0  0
    6.2624   -0.2905    0.6485 C   0  0  0  0  0  0  0  0  0  0  0  0
    7.4850    0.5286    0.7133 C   0  0  0  0  0  0  0  0  0  0  0  0
    8.1447    0.5893   -0.6635 C   0  0  0  0  0  0  0  0  0  0  0  0
    8.0819   -0.8268   -1.1714 C   0  0  0  0  0  0  0  0  0  0  0  0
    6.7962   -1.2612   -1.4356 O   0  0  0  0  0  0  0  0  0  0  0  0
  1  2  1  0
  2  3  1  0
  3  4  2  0
  4  5  1  0
  5  6  2  0
  6  7  1  0
  7  8  2  0
  8  9  1  0
  9 10  1  0
 10 11  1  0
 11 12  1  0
 12 13  1  0
 13 14  1  0
 10 15  1  0
 15 16  1  0
 16 17  1  0
 17 18  1  0
 18 19  2  3
 19 20  1  0
 20 21  1  0
 20 22  1  0
 20 23  1  0
 23 24  1  0
 24 25  1  0
 25 26  1  0
 26 27  1  0
 27 28  1  0
 28 29  1  0
 29 30  1  0
 30 31  1  0
  8  3  1  0
 16 14  1  0
 31 26  1  0
M  END
$$$$
