
     RDKit          3D

 20 19  0  0  0  0  0  0  0  0999 V2000
   -6.6246    0.5863    1.7081 O   0  0  0  0  0  0  0  0  0  0  0  0
   -5.7220    0.5221    0.6384 C   0  0  0  0  0  0  0  0  0  0  0  0
   -4.2962    0.6649    1.1788 C   0  0  0  0  0  3  0  0  0  0  0  0
   -3.4130    0.5933    0.0507 N   0  0  0  0  0  0  0  0  0  0  0  0
   -2.2008   -0.1410    0.3269 C   0  0  1  0  0  0  0  0  0  0  0  0
   -2.5602   -1.5670    0.6625 C   0  0  0  0  0  0  0  0  0  0  0  0
   -3.3860   -1.6303    1.7745 O   0  0  0  0  0  0  0  0  0  0  0  0
   -1.3452   -0.0868   -0.9284 C   0  0  1  0  0  0  0  0  0  0  0  0
   -1.0280    1.2020   -1.2783 O   0  0  0  0  0  0  0  0  0  0  0  0
   -0.1255   -0.9717   -0.8011 C   0  0  2  0  0  0  0  0  0  0  0  0
   -0.4503   -2.2668   -0.4510 O   0  0  0  0  0  0  0  0  0  0  0  0
    0.8477   -0.3848    0.2086 C   0  0  0  0  0  3  0  0  0  0  0  0
    1.2868    0.9934   -0.2352 C   0  0  0  0  0  3  0  0  0  0  0  0
    2.2337    0.9507   -1.2364 O   0  0  0  0  0  0  0  0  0  0  0  0
    3.4904    1.1093   -0.6924 C   0  0  0  0  0  0  0  0  0  0  0  0
    4.4702    1.0704   -1.6808 O   0  0  0  0  0  0  0  0  0  0  0  0
    3.7962    0.0464    0.3518 C   0  0  1  0  0  0  0  0  0  0  0  0
    3.7283   -1.2094   -0.2525 O   0  0  0  0  0  0  0  0  0  0  0  0
    5.1987    0.2382    0.8602 C   0  0  0  0  0  0  0  0  0  0  0  0
    6.0998    0.1672   -0.2044 O   0  0  0  0  0  0  0  0  0  0  0  0
  1  2  1  0
  2  3  1  0
  3  4  1  0
  4  5  1  0
  5  6  1  6
  6  7  1  0
  5  8  1  0
  8  9  1  1
  8 10  1  0
 10 11  1  1
 10 12  1  0
 12 13  1  0
 13 14  1  0
 14 15  1  0
 15 16  1  0
 15 17  1  0
 17 18  1  6
 17 19  1  0
 19 20  1  0
M  RAD  3   3   2  12   2  13   2
M  END
$$$$
