
     RDKit          3D

 37 39  0  0  0  0  0  0  0  0999 V2000
    5.8937   -0.6193    0.8428 C   0  0  0  0  0  0  0  0  0  0  0  0
    4.6871   -1.0046    1.1777 C   0  0  0  0  0  0  0  0  0  0  0  0
    3.3453   -0.5486    0.8065 C   0  0  0  0  0  0  0  0  0  0  0  0
    2.4609   -1.4043    1.0471 O   0  0  0  0  0  0  0  0  0  0  0  0
    2.8901    0.6490    0.2429 O   0  0  0  0  0  0  0  0  0  0  0  0
    3.4672    1.9362   -0.0151 C   0  0  1  0  0  0  0  0  0  0  0  0
    2.4146    3.0201    0.0545 C   0  0  0  0  0  0  0  0  0  0  0  0
    1.3146    2.7899   -0.9687 C   0  0  1  0  0  0  0  0  0  0  0  0
    1.8676    2.7808   -2.3701 C   0  0  0  0  0  0  0  0  0  0  0  0
    0.6365    1.4906   -0.6005 C   0  0  1  0  0  0  0  0  0  0  0  0
    0.0692    1.6137    0.7773 C   0  0  0  0  0  0  0  0  0  0  0  0
   -0.3734    0.2580    1.2488 C   0  0  0  0  0  0  0  0  0  0  0  0
   -1.2682   -0.3922    0.2124 C   0  0  0  0  0  3  0  0  0  0  0  0
   -2.6546    0.1500    0.2550 C   0  0  0  0  0  0  0  0  0  0  0  0
   -3.6442   -0.7033    0.1702 C   0  0  0  0  0  0  0  0  0  0  0  0
   -5.0569   -0.2716    0.2024 C   0  0  0  0  0  0  0  0  0  0  0  0
   -6.0068   -1.1886    0.1119 C   0  0  0  0  0  0  0  0  0  0  0  0
   -7.4632   -0.8414    0.1360 C   0  0  0  0  0  0  0  0  0  0  0  0
   -8.1861   -1.4824   -1.0019 C   0  0  1  0  0  0  0  0  0  0  0  0
   -8.3307   -0.5339   -2.0374 O   0  0  0  0  0  0  0  0  0  0  0  0
   -7.5772   -2.7467   -1.5062 C   0  0  0  0  0  0  0  0  0  0  0  0
   -6.7878   -3.5037   -0.4642 C   0  0  2  0  0  0  0  0  0  0  0  0
   -7.5935   -3.9032    0.5990 O   0  0  0  0  0  0  0  0  0  0  0  0
   -5.6894   -2.6064   -0.0179 C   0  0  0  0  0  0  0  0  0  0  0  0
   -4.4768   -3.0487    0.2537 C   0  0  0  0  0  0  0  0  0  0  0  0
   -2.9613    1.5852    0.3866 C   0  0  0  0  0  0  0  0  0  0  0  0
   -1.9280    2.4830   -0.2165 C   0  0  0  0  0  0  0  0  0  0  0  0
   -1.5604    2.1190   -1.6256 C   0  0  0  0  0  0  0  0  0  0  0  0
   -0.4383    1.1100   -1.5822 C   0  0  1  0  0  0  0  0  0  0  0  0
    0.1045    0.7900   -2.9417 C   0  0  0  0  0  2  0  0  0  0  0  0
    4.4099    2.1863    1.1688 C   0  0  0  0  0  0  0  0  0  0  0  0
    6.1059    2.1053    0.5769 S   0  0  0  0  0  2  0  0  0  0  0  0
    6.4282    0.4366   -0.0498 C   0  0  1  0  0  0  0  0  0  0  0  0
    7.8506    0.3053   -0.2470 N   0  0  0  0  0  2  0  0  0  0  0  0
    8.3477   -0.8607    0.2575 O   0  0  0  0  0  0  0  0  0  0  0  0
    9.5431   -1.3829   -0.2432 C   0  0  0  0  0  0  0  0  0  0  0  0
   10.1600   -0.7666   -1.1670 O   0  0  0  0  0  0  0  0  0  0  0  0
  1  2  2  3
  2  3  1  0
  3  4  2  0
  3  5  1  0
  5  6  1  0
  6  7  1  1
  7  8  1  0
  8  9  1  6
  8 10  1  0
 10 11  1  1
 11 12  1  0
 12 13  1  0
 13 14  1  0
 14 15  2  0
 15 16  1  0
 16 17  2  0
 17 18  1  0
 18 19  1  0
 19 20  1  6
 19 21  1  0
 21 22  1  0
 22 23  1  1
 22 24  1  0
 24 25  2  0
 14 26  1  0
 26 27  1  0
 27 28  1  0
 28 29  1  0
 29 30  1  6
  6 31  1  0
 31 32  1  0
 32 33  1  0
 33 34  1  1
 34 35  1  0
 35 36  1  0
 36 37  2  0
 33  1  1  0
 29 10  1  0
 24 17  1  0
M  CHG  2  32   1  34   1
M  RAD  4  13   2  30   3  32   2  34   3
M  END
$$$$
