
     RDKit          3D

 32 32  0  0  0  0  0  0  0  0999 V2000
    9.0667    0.6313    2.0264 C   0  0  0  0  0  0  0  0  0  0  0  0
    8.2490   -0.4982    1.4820 C   0  0  0  0  0  0  0  0  0  0  0  0
    9.1373   -1.5178    0.8094 C   0  0  0  0  0  0  0  0  0  0  0  0
    7.1357   -0.0651    0.5758 C   0  0  0  0  0  0  0  0  0  0  0  0
    6.1657    0.8438    1.2849 C   0  0  0  0  0  0  0  0  0  0  0  0
    5.0469    1.2868    0.3959 C   0  0  0  0  0  0  0  0  0  0  0  0
    4.2293    0.1421   -0.1385 C   0  0  1  0  0  0  0  0  0  0  0  0
    5.0507   -0.8287   -0.9601 C   0  0  0  0  0  0  0  0  0  0  0  0
    3.5488   -0.5567    1.0319 C   0  0  0  0  0  3  0  0  0  0  0  0
    2.6668    0.4681    1.7146 C   0  0  0  0  0  0  0  0  0  0  0  0
    1.6258    1.0143    0.7848 C   0  0  0  0  0  0  0  0  0  0  0  0
    0.7371   -0.0859    0.2779 C   0  0  2  0  0  0  0  0  0  0  0  0
    1.6254   -1.0789   -0.4597 C   0  0  0  0  0  0  0  0  0  0  0  0
   -0.2912    0.4802   -0.6723 C   0  0  0  0  0  3  0  0  0  0  0  0
   -1.2055   -0.5789   -1.2081 C   0  0  0  0  0  0  0  0  0  0  0  0
   -1.9418   -1.2499   -0.0939 C   0  0  1  0  0  0  0  0  0  0  0  0
   -2.0762   -2.6646   -0.3651 N   0  0  0  0  0  1  0  0  0  0  0  0
   -1.3346   -0.9516    1.1594 N   0  0  0  0  0  2  0  0  0  0  0  0
   -2.1868   -1.0902    2.2944 C   0  0  0  0  0  0  0  0  0  0  0  0
   -3.6421   -1.1326    1.9711 C   0  0  0  0  0  0  0  0  0  0  0  0
   -4.3302   -0.0221    2.7452 C   0  0  0  0  0  0  0  0  0  0  0  0
   -4.8132    1.0510    1.8035 C   0  0  0  0  0  0  0  0  0  0  0  0
   -5.8462    0.5630    1.0083 O   0  0  0  0  0  0  0  0  0  0  0  0
   -6.0318    1.4513   -0.0677 C   0  0  0  0  0  0  0  0  0  0  0  0
   -6.3568    0.6752   -1.3394 C   0  0  0  0  0  0  0  0  0  0  0  0
   -5.3833    1.1172   -2.4041 C   0  0  0  0  0  0  0  0  0  0  0  0
   -4.5195    0.0077   -2.9167 C   0  0  1  0  0  0  0  0  0  0  0  0
   -3.8442    0.4613   -4.0448 O   0  0  0  0  0  0  0  0  0  0  0  0
   -3.5711   -0.5438   -1.8953 C   0  0  0  0  0  0  0  0  0  0  0  0
   -2.1734    0.0139   -2.1815 C   0  0  0  0  0  0  0  0  0  0  0  0
   -2.1668    1.5184   -2.0078 C   0  0  0  0  0  3  0  0  0  0  0  0
   -2.5705    1.9319   -0.6107 C   0  0  0  0  0  2  0  0  0  0  0  0
  1  2  1  0
  2  3  1  0
  2  4  1  0
  4  5  1  0
  5  6  1  0
  6  7  1  0
  7  8  1  1
  7  9  1  0
  9 10  1  0
 10 11  1  0
 11 12  1  0
 12 13  1  6
 12 14  1  0
 14 15  1  0
 15 16  1  0
 16 17  1  6
 16 18  1  0
 18 19  1  0
 19 20  1  0
 20 21  1  0
 21 22  1  0
 22 23  1  0
 23 24  1  0
 24 25  1  0
 25 26  1  0
 26 27  1  0
 27 28  1  6
 27 29  1  0
 29 30  1  0
 30 31  1  0
 31 32  1  0
 30 15  1  0
M  CHG  2  17   1  18  -1
M  RAD  5   9   2  14   2  17   2  31   2  32   3
M  END
$$$$
