
     RDKit          3D

  9  8  0  0  0  0  0  0  0  0999 V2000
    3.1745    0.9211   -0.3832 O   0  0  0  0  0  0  0  0  0  0  0  0
    3.0847   -0.2581   -0.2932 N   0  0  0  0  0  3  0  0  0  0  0  0
    1.9480   -0.8310    0.3480 C   0  0  0  0  0  0  0  0  0  0  0  0
    1.0304    0.1499    0.8711 N   0  0  0  0  0  0  0  0  0  0  0  0
   -0.0486    0.3931    0.0245 N   0  0  0  0  0  0  0  0  0  0  0  0
   -0.8647   -0.6628   -0.1223 O   0  0  0  0  0  0  0  0  0  0  0  0
   -2.0664   -0.4289    0.3790 O   0  0  0  0  0  0  0  0  0  0  0  0
   -2.9440   -0.2772   -0.5881 O   0  0  0  0  0  0  0  0  0  0  0  0
   -3.3140    0.9940   -0.7008 F   0  0  0  0  0  0  0  0  0  0  0  0
  1  2  2  0
  2  3  1  0
  3  4  1  0
  4  5  1  0
  5  6  1  0
  6  7  1  0
  7  8  1  0
  8  9  1  0
M  CHG  1   2   1
M  RAD  1   2   2
M  END
$$$$
