
     RDKit          3D

 87 88  0  0  0  0  0  0  0  0999 V2000
  -14.2880    4.3680    3.1040 C   0  0  0  0  0  0  0  0  0  0  0  0
  -13.6372    3.3731    4.0224 C   0  0  0  0  0  0  0  0  0  0  0  0
  -14.6831    2.5494    4.7356 C   0  0  0  0  0  0  0  0  0  0  0  0
  -12.6426    2.4866    3.3090 C   0  0  0  0  0  0  0  0  0  0  0  0
  -13.2882    1.6943    2.2049 C   0  0  0  0  0  0  0  0  0  0  0  0
  -14.3870    0.7955    2.7162 C   0  0  0  0  0  0  0  0  0  0  0  0
  -13.8889   -0.2031    3.7168 C   0  0  1  0  0  0  0  0  0  0  0  0
  -15.1112   -1.0298    4.1387 C   0  0  0  0  0  0  0  0  0  0  0  0
  -12.9660   -1.1884    2.9996 C   0  0  0  0  0  3  0  0  0  0  0  0
  -13.7545   -1.8519    1.8982 C   0  0  0  0  0  0  0  0  0  0  0  0
  -12.9383   -2.8946    1.2007 C   0  0  0  0  0  0  0  0  0  0  0  0
  -11.7120   -2.2808    0.5996 C   0  0  2  0  0  0  0  0  0  0  0  0
  -10.8618   -3.3212   -0.1198 C   0  0  0  0  0  0  0  0  0  0  0  0
  -10.8772   -1.4979    1.5641 C   0  0  0  0  0  3  0  0  0  0  0  0
   -9.6194   -0.9651    0.9321 C   0  0  0  0  0  0  0  0  0  0  0  0
   -9.8568   -0.0285   -0.2240 C   0  0  0  0  0  0  0  0  0  0  0  0
  -10.6208   -0.7099   -1.3108 C   0  0  0  0  0  0  0  0  0  0  0  0
  -10.6113    1.2045    0.2060 C   0  0  0  0  0  0  0  0  0  0  0  0
  -10.9845    1.9886   -1.0267 C   0  0  0  0  0  0  0  0  0  0  0  0
  -12.1487    1.3661   -1.7719 C   0  0  0  0  0  0  0  0  0  0  0  0
  -12.6057    2.2343   -2.9137 C   0  0  0  0  0  0  0  0  0  0  0  0
  -12.1165    1.7349   -4.2542 C   0  0  0  0  0  0  0  0  0  0  0  0
  -12.0514    0.2276   -4.2375 C   0  0  0  0  0  2  0  0  0  0  0  0
  -11.0604   -0.2274   -5.2529 C   0  0  0  0  0  0  0  0  0  0  0  0
  -10.7465   -1.6772   -5.1518 C   0  0  0  0  0  0  0  0  0  0  0  0
   -9.6470   -2.1862   -4.6566 C   0  0  0  0  0  0  0  0  0  0  0  0
   -9.4026   -3.6757   -4.5906 C   0  0  0  0  0  0  0  0  0  0  0  0
   -8.5529   -1.3357   -4.1181 C   0  0  0  0  0  0  0  0  0  0  0  0
   -8.7036   -1.1232   -2.6307 C   0  0  0  0  0  0  0  0  0  0  0  0
   -8.3792    0.2627   -2.2052 C   0  0  0  0  0  3  0  0  0  0  0  0
   -8.9882    1.3634   -2.9927 C   0  0  0  0  0  2  0  0  0  0  0  0
   -8.4699    0.4389   -0.6972 C   0  0  0  0  0  0  0  0  0  0  0  0
   -8.2458    1.8595   -0.3487 C   0  0  0  0  0  0  0  0  0  0  0  0
   -6.9707    2.4959   -0.6772 C   0  0  0  0  0  0  0  0  0  0  0  0
   -5.7328    1.9602   -0.0482 C   0  0  0  0  0  0  0  0  0  0  0  0
   -5.4430    0.5480   -0.4352 C   0  0  2  0  0  0  0  0  0  0  0  0
   -4.1712    0.0559    0.2889 C   0  0  0  0  0  2  0  0  0  0  0  0
   -5.1489    0.4566   -1.9437 C   0  0  0  0  0  0  0  0  0  0  0  0
   -3.9615    1.2907   -2.3038 C   0  0  0  0  0  0  0  0  0  0  0  0
   -2.7352    0.7989   -1.5420 C   0  0  0  0  0  0  0  0  0  0  0  0
   -1.5945    1.6361   -1.9484 C   0  0  0  0  0  0  0  0  0  0  0  0
   -0.5335    1.1742   -2.5081 C   0  0  0  0  0  0  0  0  0  0  0  0
   -0.2244   -0.1874   -2.8462 C   0  0  0  0  0  0  0  0  0  0  0  0
   -1.1177   -1.2773   -2.3998 C   0  0  0  0  0  0  0  0  0  0  0  0
   -1.2316   -1.4436   -0.9083 C   0  0  0  0  0  0  0  0  0  0  0  0
    0.0440   -1.7628   -0.2224 C   0  0  1  0  0  0  0  0  0  0  0  0
    0.6839   -3.0379   -0.6899 C   0  0  0  0  0  0  0  0  0  0  0  0
    0.9741   -0.6096   -0.1132 C   0  0  0  0  0  0  0  0  0  0  0  0
    0.3329    0.5076    0.6731 C   0  0  0  0  0  0  0  0  0  0  0  0
    1.3091    1.6880    0.7729 C   0  0  0  0  0  3  0  0  0  0  0  0
    2.5468    1.1305    1.4889 C   0  0  2  0  0  0  0  0  0  0  0  0
    3.5722    2.2363    1.6370 C   0  0  0  0  0  0  0  0  0  0  0  0
    3.1356   -0.0136    0.6529 C   0  0  0  0  0  0  0  0  0  0  0  0
    4.3408   -0.5210    1.4109 C   0  0  0  0  0  0  0  0  0  0  0  0
    5.3185    0.6154    1.5562 C   0  0  0  0  0  0  0  0  0  0  0  0
    6.5530    0.2137    2.3102 C   0  0  0  0  0  0  0  0  0  0  0  0
    7.3093   -0.8906    1.6681 C   0  0  0  0  0  0  0  0  0  0  0  0
    8.5616   -0.6965    1.3045 C   0  0  0  0  0  0  0  0  0  0  0  0
    9.2864   -1.8155    0.6687 C   0  0  0  0  0  2  0  0  0  0  0  0
    9.2018    0.6142    1.5282 C   0  0  0  0  0  0  0  0  0  0  0  0
   10.3771    0.4597    2.4474 C   0  0  0  0  0  3  0  0  0  0  0  0
   11.3743   -0.4802    1.8209 C   0  0  0  0  0  0  0  0  0  0  0  0
   12.5254   -0.6362    2.7987 C   0  0  0  0  0  3  0  0  0  0  0  0
   12.1192   -1.3041    4.0803 C   0  0  0  0  0  0  0  0  0  0  0  0
   11.1521   -2.4286    3.8459 C   0  0  0  0  0  0  0  0  0  0  0  0
   11.8273   -3.7554    4.1533 C   0  0  0  0  0  0  0  0  0  0  0  0
   13.1999   -3.8528    3.5244 C   0  0  2  0  0  0  0  0  0  0  0  0
   14.1152   -2.7802    4.1204 C   0  0  0  0  0  0  0  0  0  0  0  0
   13.0386   -3.6418    2.0364 C   0  0  0  0  0  0  0  0  0  0  0  0
   14.4090   -3.6002    1.3892 C   0  0  0  0  0  0  0  0  0  0  0  0
   14.2378   -4.0530   -0.0475 C   0  0  0  0  0  0  0  0  0  0  0  0
   14.5463   -5.5213   -0.1952 C   0  0  0  0  0  0  0  0  0  0  0  0
   15.1839   -3.2041   -0.8974 C   0  0  0  0  0  3  0  0  0  0  0  0
   14.4280   -1.9654   -1.3416 C   0  0  0  0  0  0  0  0  0  0  0  0
   13.9162   -1.1763   -0.1730 C   0  0  0  0  0  0  0  0  0  0  0  0
   12.4175   -0.9252   -0.4050 C   0  0  0  0  0  3  0  0  0  0  0  0
   11.8780    0.0781    0.5472 C   0  0  0  0  0  0  0  0  0  0  0  0
   11.1997    1.2588    0.0100 C   0  0  0  0  0  3  0  0  0  0  0  0
   11.2951    2.4629    0.9270 C   0  0  0  0  0  0  0  0  0  0  0  0
   10.5872    3.6200    0.2927 C   0  0  0  0  0  3  0  0  0  0  0  0
   11.1926    3.9708   -1.0180 C   0  0  0  0  0  0  0  0  0  0  0  0
   12.5168    3.9962   -1.1074 C   0  0  0  0  0  0  0  0  0  0  0  0
   13.3956    3.6942    0.0262 C   0  0  0  0  0  0  0  0  0  0  0  0
   14.3207    2.5318   -0.1877 C   0  0  0  0  0  0  0  0  0  0  0  0
   15.2559    2.7090   -1.3429 C   0  0  0  0  0  0  0  0  0  0  0  0
   16.1334    3.9447   -1.1127 C   0  0  0  0  0  0  0  0  0  0  0  0
   16.8992    3.6813    0.1732 C   0  0  0  0  0  0  0  0  0  0  0  0
  1  2  1  0
  2  3  1  0
  2  4  1  0
  4  5  1  0
  5  6  1  0
  6  7  1  0
  7  8  1  6
  7  9  1  0
  9 10  1  0
 10 11  1  0
 11 12  1  0
 12 13  1  1
 12 14  1  0
 14 15  1  0
 15 16  1  0
 16 17  1  0
 16 18  1  0
 18 19  1  0
 19 20  1  0
 20 21  1  0
 21 22  1  0
 22 23  1  0
 23 24  1  0
 24 25  1  0
 25 26  2  3
 26 27  1  0
 26 28  1  0
 28 29  1  0
 29 30  1  0
 30 31  1  0
 30 32  1  0
 32 33  1  0
 33 34  1  0
 34 35  1  0
 35 36  1  0
 36 37  1  1
 36 38  1  0
 38 39  1  0
 39 40  1  0
 40 41  1  0
 41 42  2  3
 42 43  1  0
 43 44  1  0
 44 45  1  0
 45 46  1  0
 46 47  1  6
 46 48  1  0
 48 49  1  0
 49 50  1  0
 50 51  1  0
 51 52  1  6
 51 53  1  0
 53 54  1  0
 54 55  1  0
 55 56  1  0
 56 57  1  0
 57 58  2  3
 58 59  1  0
 58 60  1  0
 60 61  1  0
 61 62  1  0
 62 63  1  0
 63 64  1  0
 64 65  1  0
 65 66  1  0
 66 67  1  0
 67 68  1  1
 67 69  1  0
 69 70  1  0
 70 71  1  0
 71 72  1  0
 71 73  1  0
 73 74  1  0
 74 75  1  0
 75 76  1  0
 76 77  1  0
 77 78  1  0
 78 79  1  0
 79 80  1  0
 80 81  1  0
 81 82  2  3
 82 83  1  0
 83 84  1  0
 84 85  1  0
 85 86  1  0
 86 87  1  0
 32 16  1  0
 77 62  1  0
M  RAD  8   9   2  14   2  23   3  30   2  31   3  37   3  50   2  59   3
M  RAD  6  61   2  63   2  73   2  76   2  78   2  80   2
M  END
$$$$
