
     RDKit          3D

 34 36  0  0  0  0  0  0  0  0999 V2000
   -2.4247   -1.9036   -0.3812 C   0  0  0  0  0  0  0  0  0  0  0  0
   -1.1488   -1.9949   -0.0182 C   0  0  0  0  0  0  0  0  0  0  0  0
   -0.6372   -3.2698    0.5623 C   0  0  0  0  0  0  0  0  0  0  0  0
   -0.1769   -0.8756   -0.1593 C   0  0  0  0  0  0  0  0  0  0  0  0
    0.6846   -1.1102   -1.3724 C   0  0  0  0  0  0  0  0  0  0  0  0
    2.0943   -0.6358   -1.2047 C   0  0  0  0  0  0  0  0  0  0  0  0
    3.0851   -1.7127   -0.9383 C   0  0  0  0  0  3  0  0  0  0  0  0
    2.4984   -3.0709   -0.7374 C   0  0  0  0  0  0  0  0  0  0  0  0
    4.1553   -1.3448    0.0311 C   0  0  0  0  0  0  0  0  0  0  0  0
    5.4513   -1.0214   -0.7186 C   0  0  0  0  0  0  0  0  0  0  0  0
    6.2576   -0.0013    0.0260 C   0  0  0  0  0  0  0  0  0  0  0  0
    5.5968    0.4080    1.1906 O   0  0  0  0  0  0  0  0  0  0  0  0
    5.2728    1.7692    1.0732 C   0  0  0  0  0  0  0  0  0  0  0  0
    3.7721    1.9238    0.8922 C   0  0  0  0  0  0  0  0  0  0  0  0
    3.3756    1.3813   -0.4636 C   0  0  0  0  0  0  0  0  0  0  0  0
    2.1395    0.5125   -0.2531 C   0  0  1  0  0  0  0  0  0  0  0  0
    0.9303    1.4058   -0.5475 C   0  0  0  0  0  0  0  0  0  0  0  0
    1.3129    2.5227   -1.4991 C   0  0  0  0  0  3  0  0  0  0  0  0
    1.1493    3.8672   -0.7908 C   0  0  0  0  0  3  0  0  0  0  0  0
    0.2488    3.6882    0.4328 C   0  0  0  0  0  3  0  0  0  0  0  0
   -1.0758    4.3554    0.1338 C   0  0  0  0  0  0  0  0  0  0  0  0
   -2.1172    3.2887   -0.1526 C   0  0  0  0  0  0  0  0  0  0  0  0
   -2.2469    2.3705    1.0331 C   0  0  0  0  0  0  0  0  0  0  0  0
   -3.0666    1.1607    0.5993 C   0  0  1  0  0  0  0  0  0  0  0  0
   -4.4640    1.6552    0.2326 C   0  0  0  0  0  0  0  0  0  0  0  0
   -2.3662    0.5764   -0.6171 C   0  0  0  0  0  0  0  0  0  0  0  0
   -2.5692    1.5375   -1.7935 C   0  0  0  0  0  0  0  0  0  0  0  0
   -3.0451   -0.7122   -0.9605 C   0  0  2  0  0  0  0  0  0  0  0  0
   -4.5094   -0.5735   -0.6586 C   0  0  0  0  0  0  0  0  0  0  0  0
   -5.0615   -1.6224    0.2316 C   0  0  0  0  0  0  0  0  0  0  0  0
   -4.3080   -1.8316    1.5073 C   0  0  0  0  0  0  0  0  0  0  0  0
   -3.5450   -3.1547    1.3586 C   0  0  0  0  0  3  0  0  0  0  0  0
   -3.1143   -3.2139   -0.0999 C   0  0  2  0  0  0  0  0  0  0  0  0
   -2.1478   -4.3740   -0.2455 C   0  0  0  0  0  0  0  0  0  0  0  0
  1  2  2  3
  2  3  1  0
  2  4  1  0
  4  5  1  0
  5  6  1  0
  6  7  1  0
  7  8  1  0
  7  9  1  0
  9 10  1  0
 10 11  1  0
 11 12  1  0
 12 13  1  0
 13 14  1  0
 14 15  1  0
 16 15  1  6
 16 17  1  0
 17 18  1  0
 18 19  1  0
 19 20  1  0
 20 21  1  0
 21 22  1  0
 22 23  1  0
 23 24  1  0
 24 25  1  6
 24 26  1  0
 26 27  1  0
 26 28  1  0
 28 29  1  1
 29 30  1  0
 30 31  1  0
 31 32  1  0
 32 33  1  0
 33 34  1  1
 28  1  1  0
 33  1  1  0
 16  6  1  0
M  RAD  5   7   2  18   2  19   2  20   2  32   2
M  END
$$$$
