
     RDKit          3D

 19 18  0  0  0  0  0  0  0  0999 V2000
   -0.1041   -1.6157   -0.0681 O   0  0  0  0  0  0  0  0  0  0  0  0
   -0.1559   -1.3097   -1.2060 N   0  0  0  0  0  4  0  0  0  0  0  0
    1.0463   -0.9378   -1.8903 C   0  0  0  0  0  0  0  0  0  0  0  0
    2.1435   -1.0293   -0.9525 N   0  0  0  0  0  0  0  0  0  0  0  0
    2.0750   -0.2113    0.2084 C   0  0  0  0  0  0  0  0  0  0  0  0
    3.0676   -0.0194    1.0287 C   0  0  0  0  0  0  0  0  0  0  0  0
    4.3868   -0.6182    0.8683 C   0  0  0  0  0  0  0  0  0  0  0  0
    5.3788   -0.4200    1.6975 C   0  0  0  0  0  0  0  0  0  0  0  0
    5.3118    0.3981    2.8593 N   0  0  0  0  0  0  0  0  0  0  0  0
    6.5894   -1.0475    1.4360 O   0  0  0  0  0  0  0  0  0  0  0  0
   -1.4234   -1.3200   -1.8689 C   0  0  0  0  0  0  0  0  0  0  0  0
   -2.4360   -1.7309   -0.9385 N   0  0  0  0  0  0  0  0  0  0  0  0
   -3.3964   -1.0043   -0.5470 N   0  0  0  0  0  4  0  0  0  0  0  0
   -4.2847   -1.6060    0.3753 N   0  0  0  0  0  0  0  0  0  0  0  0
   -3.5678    0.3430   -1.0126 C   0  0  0  0  0  0  0  0  0  0  0  0
   -3.5178    1.2237    0.1212 N   0  0  0  0  0  0  0  0  0  0  0  0
   -3.6850    2.6193   -0.2706 C   0  0  0  0  0  0  0  0  0  0  0  0
   -3.6306    3.4854    0.8912 N   0  0  0  0  0  0  0  0  0  0  0  0
   -3.7974    4.8005    0.4400 N   0  0  0  0  0  0  0  0  0  0  0  0
  1  2  2  0
  2  3  1  0
  3  4  1  0
  4  5  1  0
  5  6  2  3
  6  7  1  0
  7  8  2  3
  8  9  1  0
  8 10  1  0
  2 11  1  0
 11 12  1  0
 12 13  2  3
 13 14  1  0
 13 15  1  0
 15 16  1  0
 16 17  1  0
 17 18  1  0
 18 19  1  0
M  CHG  2   2   1  13   1
M  END
$$$$
