
     RDKit          3D

 15 14  0  0  0  0  0  0  0  0999 V2000
   -4.7697    2.1182   -0.9151 O   0  0  0  0  0  0  0  0  0  0  0  0
   -4.2310    2.2554    0.1756 C   0  0  0  0  0  0  0  0  0  0  0  0
   -3.4306    1.1152    0.6791 C   0  0  0  0  0  0  0  0  0  0  0  0
   -3.4172   -0.0543   -0.2691 C   0  0  0  0  0  0  0  0  0  0  0  0
   -2.5608   -1.1374    0.3834 C   0  0  0  0  0  0  0  0  0  0  0  0
   -1.2316   -0.6141    0.5868 N   0  0  0  0  0  2  0  0  0  0  0  0
   -0.3882   -1.6334    0.9851 O   0  0  0  0  0  0  0  0  0  0  0  0
    0.2235   -2.4137    0.0033 C   0  0  0  0  0  0  0  0  0  0  0  0
    1.5404   -2.6169    0.1145 C   0  0  0  0  0  0  0  0  0  0  0  0
    2.2987   -2.0601    1.1937 N   0  0  0  0  0  0  0  0  0  0  0  0
    2.4233   -0.7937    1.2090 C   0  0  0  0  0  0  0  0  0  0  0  0
    2.4224    0.4959    1.2135 N   0  0  0  0  0  0  0  0  0  0  0  0
    2.6836    1.1343   -0.0827 C   0  0  0  0  0  0  0  0  0  0  0  0
    4.1303    1.6144   -0.0159 C   0  0  0  0  0  0  0  0  0  0  0  0
    4.3068    2.5901    1.1088 C   0  0  0  0  0  0  0  0  0  0  0  0
  1  2  2  0
  2  3  1  0
  3  4  1  0
  4  5  1  0
  5  6  1  0
  6  7  1  0
  7  8  1  0
  8  9  2  3
  9 10  1  0
 10 11  2  0
 11 12  2  0
 12 13  1  0
 13 14  1  0
 14 15  1  0
M  CHG  1   6   1
M  RAD  1   6   3
M  END
$$$$
