
     RDKit          2D

104107  0  0  0  0  0  0  0  0999 V2000
  -12.2082   22.4173    0.0000 O   0  0  0  0  0  0  0  0  0  0  0  0
  -10.7816   21.9538    0.0000 C   0  0  0  0  0  0  0  0  0  0  0  0
   -9.6669   22.9575    0.0000 N   0  0  0  0  0  0  0  0  0  0  0  0
   -9.9787   24.4247    0.0000 C   0  0  0  0  0  0  0  0  0  0  0  0
   -8.8640   25.4284    0.0000 C   0  0  0  0  0  0  0  0  0  0  0  0
   -9.1759   26.8956    0.0000 C   0  0  0  0  0  0  0  0  0  0  0  0
   -8.0612   27.8993    0.0000 C   0  0  0  0  0  0  0  0  0  0  0  0
   -8.3730   29.3665    0.0000 C   0  0  0  0  0  0  0  0  0  0  0  0
   -7.2583   30.3702    0.0000 C   0  0  0  0  0  0  0  0  0  0  0  0
   -7.5702   31.8375    0.0000 N   0  0  0  0  0  0  0  0  0  0  0  0
   -6.4555   32.8412    0.0000 C   0  0  0  0  0  0  0  0  0  0  0  0
   -4.9575   32.7627    0.0000 N   0  0  0  0  0  0  0  0  0  0  0  0
   -4.8790   34.2606    0.0000 C   0  0  0  0  0  0  0  0  0  0  0  0
   -6.3770   34.3391    0.0000 N   0  0  0  0  0  0  0  0  0  0  0  0
  -10.4697   20.4866    0.0000 C   0  0  0  0  0  0  0  0  0  0  0  0
  -11.5844   19.4829    0.0000 C   0  0  0  0  0  0  0  0  0  0  0  0
  -11.2726   18.0157    0.0000 C   0  0  0  0  0  0  0  0  0  0  0  0
  -12.3873   17.0120    0.0000 C   0  0  0  0  0  0  0  0  0  0  0  0
  -12.0754   15.5447    0.0000 C   0  0  0  0  0  0  0  0  0  0  0  0
  -13.1901   14.5410    0.0000 C   0  0  0  0  0  0  0  0  0  0  0  0
  -12.8783   13.0738    0.0000 C   0  0  0  0  0  0  0  0  0  0  0  0
  -13.9930   12.0701    0.0000 C   0  0  0  0  0  0  0  0  0  0  0  0
  -13.6811   10.6029    0.0000 C   0  0  0  0  0  0  0  0  0  0  0  0
  -14.7958    9.5992    0.0000 C   0  0  0  0  0  0  0  0  0  0  0  0
  -14.4840    8.1320    0.0000 O   0  0  0  0  0  0  0  0  0  0  0  0
  -15.5987    7.1283    0.0000 C   0  0  0  0  0  0  0  0  0  0  0  0
  -16.8253    7.9917    0.0000 C   0  0  0  0  0  0  0  0  0  0  0  0
  -18.3050    8.2374    0.0000 S   0  0  0  0  0  0  0  0  0  0  0  0
  -19.7448    7.8168    0.0000 O   0  0  0  0  0  0  0  0  0  0  0  0
  -20.8595    6.8131    0.0000 C   0  0  0  0  0  0  0  0  0  0  0  0
  -21.4284    5.4251    0.0000 N   0  0  0  0  0  0  0  0  0  0  0  0
  -21.3386    3.9278    0.0000 C   0  0  0  0  0  0  0  0  0  0  0  0
  -20.6082    2.6177    0.0000 C   0  0  0  0  0  0  0  0  0  0  0  0
  -19.3816    1.7543    0.0000 C   0  0  0  0  0  0  0  0  0  0  0  0
  -17.9019    1.5086    0.0000 C   0  0  0  0  0  0  0  0  0  0  0  0
  -16.4620    1.9292    0.0000 N   0  0  0  0  0  0  0  0  0  0  0  0
  -15.3473    2.9329    0.0000 N   0  0  0  0  0  0  0  0  0  0  0  0
  -14.7785    4.3209    0.0000 C   0  0  0  0  0  0  0  0  0  0  0  0
  -14.8682    5.8182    0.0000 C   0  0  0  0  0  0  0  0  0  0  0  0
  -13.4284    6.2388    0.0000 N   0  0  0  0  0  0  0  0  0  0  0  0
  -12.3442    5.2022    0.0000 C   0  0  0  0  0  0  0  0  0  0  0  0
  -10.9044    5.6229    0.0000 C   0  0  0  0  0  0  0  0  0  0  0  0
   -9.8202    4.5863    0.0000 C   0  0  0  0  0  0  0  0  0  0  0  0
   -8.3804    5.0069    0.0000 C   0  0  0  0  0  0  0  0  0  0  0  0
   -7.2962    3.9703    0.0000 C   0  0  0  0  0  0  0  0  0  0  0  0
   -5.8564    4.3910    0.0000 N   0  0  0  0  0  0  0  0  0  0  0  0
   -4.7722    3.3544    0.0000 C   0  0  0  0  0  0  0  0  0  0  0  0
   -3.3324    3.7750    0.0000 O   0  0  0  0  0  0  0  0  0  0  0  0
   -2.0919    1.2116    0.0000 C   0  0  0  0  0  0  0  0  0  0  0  0
   -1.0596    1.8970    0.0000 C   0  0  0  0  0  0  0  0  0  0  0  0
   -0.2876    1.2709    0.0000 C   0  0  0  0  0  0  0  0  0  0  0  0
    0.9827    1.4588    0.0000 N   0  0  0  0  0  0  0  0  0  0  0  0
    1.0341    0.5740    0.0000 C   0  0  0  0  0  0  0  0  0  0  0  0
    2.0680    0.0549    0.0000 C   0  0  0  0  0  0  0  0  0  0  0  0
    1.8249   -0.7390    0.0000 N   0  0  0  0  0  4  0  0  0  0  0  0
    3.0367   -1.4624    0.0000 C   0  0  0  0  0  0  0  0  0  0  0  0
    2.8929   -0.6637    0.0000 C   0  0  0  0  0  0  0  0  0  0  0  0
    1.7753    0.8550    0.0000 C   0  0  0  0  0  0  0  0  0  0  0  0
    1.2286    1.5406    0.0000 N   0  0  0  0  0  0  0  0  0  0  0  0
    0.4385    1.9211    0.0000 C   0  0  0  0  0  0  0  0  0  0  0  0
   -0.4385    1.9211    0.0000 C   0  0  0  0  0  0  0  0  0  0  0  0
   -2.3226    1.8479    0.0000 C   0  0  0  0  0  0  0  0  0  0  0  0
   -3.0367    1.4624    0.0000 C   0  0  0  0  0  0  0  0  0  0  0  0
   -3.3705    0.0000    0.0000 N   0  0  0  0  0  0  0  0  0  0  0  0
   -3.0367   -1.4624    0.0000 C   0  0  0  0  0  0  0  0  0  0  0  0
   -2.1015   -2.6351    0.0000 C   0  0  0  0  0  0  0  0  0  0  0  0
   -0.7500   -3.2860    0.0000 C   0  0  0  0  0  0  0  0  0  0  0  0
    0.7500   -3.2860    0.0000 C   0  0  0  0  0  0  0  0  0  0  0  0
    2.1015   -2.6351    0.0000 C   0  0  0  0  0  0  0  0  0  0  0  0
    5.4203   -0.4400    0.0000 O   0  0  0  0  0  0  0  0  0  0  0  0
    5.9891   -1.8280    0.0000 C   0  0  0  0  0  0  0  0  0  0  0  0
    7.4755   -2.0293    0.0000 C   0  0  0  0  0  0  0  0  0  0  0  0
    8.0444   -3.4173    0.0000 C   0  0  0  0  0  0  0  0  0  0  0  0
    9.5308   -3.6186    0.0000 N   0  0  0  0  0  0  0  0  0  0  0  0
   10.0996   -5.0066    0.0000 C   0  0  0  0  0  0  0  0  0  0  0  0
   11.5860   -5.2079    0.0000 O   0  0  0  0  0  0  0  0  0  0  0  0
   12.1549   -6.5959    0.0000 C   0  0  0  0  0  0  0  0  0  0  0  0
   13.6413   -6.7973    0.0000 N   0  0  0  0  0  3  0  0  0  0  0  0
   14.5589   -5.6106    0.0000 N   0  0  0  0  0  0  0  0  0  0  0  0
   16.0453   -5.8120    0.0000 C   0  0  0  0  0  0  0  0  0  0  0  0
   16.9629   -4.6254    0.0000 C   0  0  0  0  0  0  0  0  0  0  0  0
   18.4493   -4.8267    0.0000 C   0  0  0  0  0  0  0  0  0  0  0  0
   19.3669   -3.6401    0.0000 C   0  0  0  0  0  0  0  0  0  0  0  0
   20.8533   -3.8415    0.0000 C   0  0  0  0  0  0  0  0  0  0  0  0
   21.7709   -2.6549    0.0000 C   0  0  0  0  0  0  0  0  0  0  0  0
   23.2574   -2.8562    0.0000 C   0  0  0  0  0  0  0  0  0  0  0  0
   24.1749   -1.6696    0.0000 N   0  0  0  0  0  0  0  0  0  0  0  0
   25.6614   -1.8710    0.0000 C   0  0  0  0  0  0  0  0  0  0  0  0
   26.5789   -0.6844    0.0000 C   0  0  0  0  0  0  0  0  0  0  0  0
   14.2101   -8.1852    0.0000 C   0  0  0  0  0  0  0  0  0  0  0  0
   15.6966   -8.3866    0.0000 C   0  0  0  0  0  0  0  0  0  0  0  0
   16.2654   -9.7745    0.0000 N   0  0  0  0  0  0  0  0  0  0  0  0
   17.7518   -9.9759    0.0000 C   0  0  0  0  0  0  0  0  0  0  0  0
   18.3207  -11.3638    0.0000 C   0  0  0  0  0  0  0  0  0  0  0  0
   19.8071  -11.5652    0.0000 C   0  0  0  0  0  0  0  0  0  0  0  0
   20.3759  -12.9531    0.0000 N   0  0  0  0  0  0  0  0  0  0  0  0
   21.8624  -13.1545    0.0000 C   0  0  0  0  0  0  0  0  0  0  0  0
   22.4312  -14.5424    0.0000 C   0  0  0  0  0  0  0  0  0  0  0  0
   23.9176  -14.7438    0.0000 C   0  0  0  0  0  0  0  0  0  0  0  0
   24.4865  -16.1317    0.0000 C   0  0  0  0  0  0  0  0  0  0  0  0
   25.9729  -16.3331    0.0000 N   0  0  0  0  0  3  0  0  0  0  0  0
   26.5417  -17.7210    0.0000 C   0  0  0  0  0  0  0  0  0  0  0  0
   28.0281  -17.9224    0.0000 N   0  0  0  0  0  3  0  0  0  0  0  0
   28.5970  -19.3104    0.0000 C   0  0  0  0  0  0  0  0  0  0  0  0
  1  2  2  0
  2  3  1  0
  3  4  1  0
  4  5  1  0
  5  6  1  0
  6  7  2  3
  7  8  1  0
  8  9  2  3
  9 10  1  0
 10 11  2  0
 11 12  1  0
 12 13  1  0
 13 14  1  0
  2 15  1  0
 15 16  1  0
 16 17  2  3
 17 18  1  0
 18 19  2  3
 19 20  1  0
 20 21  2  3
 21 22  1  0
 22 23  2  3
 23 24  1  0
 24 25  1  0
 25 26  1  0
 26 27  2  3
 27 28  1  0
 28 29  1  0
 29 30  1  0
 30 31  1  0
 31 32  1  0
 32 33  2  3
 33 34  1  0
 34 35  2  3
 35 36  1  0
 36 37  1  0
 37 38  1  0
 38 39  2  3
 39 40  1  0
 40 41  1  0
 41 42  1  0
 42 43  2  3
 43 44  1  0
 44 45  2  3
 45 46  1  0
 46 47  1  0
 47 48  1  0
 48 49  1  0
 49 50  1  0
 50 51  2  3
 51 52  1  0
 52 53  1  0
 53 54  2  3
 54 55  1  0
 55 56  2  3
 56 57  1  0
 57 58  2  3
 58 59  1  0
 59 60  2  3
 60 61  1  0
 61 62  2  3
 62 63  1  0
 63 64  1  0
 64 65  1  0
 65 66  1  0
 66 67  2  3
 67 68  1  0
 68 69  2  3
 55 70  1  0
 70 71  1  0
 71 72  1  0
 72 73  2  3
 73 74  1  0
 74 75  1  0
 75 76  1  0
 76 77  1  0
 77 78  1  0
 78 79  1  0
 79 80  1  0
 80 81  2  3
 81 82  1  0
 82 83  2  3
 83 84  1  0
 84 85  2  3
 85 86  1  0
 86 87  1  0
 87 88  1  0
 88 89  2  0
 78 90  1  0
 90 91  2  3
 91 92  1  0
 92 93  2  3
 93 94  1  0
 94 95  2  3
 95 96  1  0
 96 97  1  0
 97 98  2  3
 98 99  1  0
 99100  2  3
100101  1  0
101102  2  3
102103  1  0
103104  2  0
 14 11  1  0
 39 26  1  0
 63 49  1  0
 69 56  1  0
M  CHG  4  55   1  78   1 101   1 103   1
M  RAD  3  78   2 101   2 103   2
M  END
$$$$
