
     RDKit          3D

 46 48  0  0  0  0  0  0  0  0999 V2000
   -1.9053   -0.9508    1.0892 C   0  0  0  0  0  0  0  0  0  0  0  0
   -2.6934    0.1623    1.2781 O   0  0  0  0  0  0  0  0  0  0  0  0
   -4.0238   -0.0472    0.9167 C   0  0  1  0  0  0  0  0  0  0  0  0
   -4.8258    0.0825    2.1019 O   0  0  0  0  0  0  0  0  0  0  0  0
   -6.1284   -0.2554    1.7124 C   0  0  2  0  0  0  0  0  0  0  0  0
   -7.1412    0.2942    2.6963 C   0  0  0  0  0  0  0  0  0  0  0  0
   -6.1697   -1.7663    1.6653 C   0  0  0  0  0  3  0  0  0  0  0  0
   -6.1975   -2.3025    0.2604 C   0  0  1  0  0  0  0  0  0  0  0  0
   -6.6380   -1.3366   -0.7113 N   0  0  0  0  0  0  0  0  0  0  0  0
   -5.5344   -0.5965   -1.2495 C   0  0  0  0  0  3  0  0  0  0  0  0
   -5.4601    0.8083   -0.7163 C   0  0  0  0  0  3  0  0  0  0  0  0
   -5.3177    1.7336   -1.9147 C   0  0  0  0  0  0  0  0  0  0  0  0
   -4.4303    1.0250    0.1388 O   0  0  0  0  0  0  0  0  0  0  0  0
   -4.9379   -3.0203   -0.1294 C   0  0  0  0  0  3  0  0  0  0  0  0
   -4.0199   -2.2231   -0.7874 O   0  0  0  0  0  0  0  0  0  0  0  0
   -2.7049   -2.5719   -0.5628 C   0  0  2  0  0  0  0  0  0  0  0  0
   -2.6669   -3.4643    0.5018 O   0  0  0  0  0  0  0  0  0  0  0  0
   -1.7888   -1.4160   -0.3175 C   0  0  1  0  0  0  0  0  0  0  0  0
   -1.9204   -0.3360   -1.3565 C   0  0  2  0  0  0  0  0  0  0  0  0
   -1.3503   -0.9076   -2.6577 C   0  0  0  0  0  2  0  0  0  0  0  0
   -1.3172    0.9716   -1.0229 C   0  0  2  0  0  0  0  0  0  0  0  0
   -2.2971    1.9765   -0.9805 O   0  0  0  0  0  0  0  0  0  0  0  0
   -0.3458    1.4657   -2.1224 C   0  0  0  0  0  3  0  0  0  0  0  0
   -0.2295    2.8437   -1.9266 O   0  0  0  0  0  0  0  0  0  0  0  0
   -0.4783    3.2511   -0.6114 C   0  0  0  0  0  3  0  0  0  0  0  0
    0.6957    3.0661    0.4254 S   0  0  0  0  0  0  0  0  0  0  0  0
    1.1666    4.9339    1.1828 O   0  0  0  0  0  0  0  0  0  0  0  0
    1.8621    2.1863    0.3772 C   0  0  0  0  0  3  0  0  0  0  0  0
    2.2084    1.1372    1.2112 O   0  0  0  0  0  0  0  0  0  0  0  0
    1.3966    0.0283    0.9990 C   0  0  2  0  0  0  0  0  0  0  0  0
    1.4666   -0.4377   -0.4000 C   0  0  0  0  0  2  0  0  0  0  0  0
    2.5042    0.3835   -1.2266 C   0  0  0  0  0  3  0  0  0  0  0  0
    3.6490   -0.5969   -1.4887 C   0  0  0  0  0  3  0  0  0  0  0  0
    3.8678   -1.2842   -0.2828 O   0  0  0  0  0  0  0  0  0  0  0  0
    5.1803   -1.4254   -0.0504 O   0  0  0  0  0  0  0  0  0  0  0  0
    5.8455   -0.4200   -0.6826 C   0  0  0  0  0  3  0  0  0  0  0  0
    7.1260   -0.2374   -0.5314 O   0  0  0  0  0  0  0  0  0  0  0  0
    7.5911   -0.2032    0.8035 C   0  0  2  0  0  0  0  0  0  0  0  0
    8.2077    1.2236    0.9839 C   0  0  0  0  0  2  0  0  0  0  0  0
    8.7467   -1.1750    1.0642 C   0  0  0  0  0  3  0  0  0  0  0  0
    9.7622   -0.9837    0.1695 O   0  0  0  0  0  0  0  0  0  0  0  0
    9.4939   -0.0203   -0.7692 C   0  0  0  0  0  3  0  0  0  0  0  0
   10.3136   -0.1034   -1.8962 O   0  0  0  0  0  0  0  0  0  0  0  0
   -0.0004    0.3028    1.5062 C   0  0  2  0  0  0  0  0  0  0  0  0
    0.1542    1.0586    2.8233 C   0  0  0  0  0  2  0  0  0  0  0  0
   -0.7152   -0.8530    1.7719 O   0  0  0  0  0  0  0  0  0  0  0  0
  1  2  1  0
  3  2  1  1
  3  4  1  0
  4  5  1  0
  5  6  1  1
  5  7  1  0
  7  8  1  0
  8  9  1  0
  9 10  1  0
 10 11  1  0
 11 12  1  0
 11 13  1  0
  8 14  1  6
 14 15  1  0
 15 16  1  0
 16 17  1  1
 16 18  1  0
 18 19  1  0
 19 20  1  6
 19 21  1  0
 21 22  1  6
 21 23  1  0
 23 24  1  0
 24 25  1  0
 25 26  1  0
 26 27  1  0
 26 28  1  0
 28 29  1  0
 29 30  1  0
 30 31  1  6
 31 32  1  0
 32 33  1  0
 33 34  1  0
 34 35  1  0
 35 36  1  0
 36 37  1  0
 37 38  1  0
 38 39  1  6
 38 40  1  0
 40 41  1  0
 41 42  1  0
 42 43  1  0
 30 44  1  0
 44 45  1  1
 44 46  1  0
 18  1  1  1
 46  1  1  0
 13  3  1  0
M  RAD  8   7   2  10   2  11   2  14   2  20   3  23   2  25   2  28   2
M  RAD  8  31   3  32   2  33   2  36   2  39   3  40   2  42   2  45   3
M  END
$$$$
