
     RDKit          3D

 28 29  0  0  0  0  0  0  0  0999 V2000
    3.2186   -0.5777    0.9874 C   0  0  0  0  0  0  0  0  0  0  0  0
    3.0288    0.4350   -0.1151 C   0  0  0  0  0  0  0  0  0  0  0  0
    3.9673    0.1193   -1.2666 C   0  0  0  0  0  0  0  0  0  0  0  0
    3.3058    1.8272    0.4281 C   0  0  0  0  0  0  0  0  0  0  0  0
    2.3801    2.7860   -0.2596 C   0  0  0  0  0  0  0  0  0  0  0  0
    1.5008    3.4798    0.7765 C   0  0  0  0  0  0  0  0  0  0  0  0
    0.4326    4.2599    0.0122 C   0  0  1  0  0  0  0  0  0  0  0  0
    0.1222    3.5910   -1.3007 C   0  0  0  0  0  0  0  0  0  0  0  0
   -0.8021    4.3862    0.8730 C   0  0  0  0  0  3  0  0  0  0  0  0
   -1.8196    3.3383    0.4204 C   0  0  0  0  0  0  0  0  0  0  0  0
   -1.0583    2.0483    0.2414 C   0  0  0  0  0  0  0  0  0  0  0  0
   -1.9288    0.9191   -0.2361 C   0  0  2  0  0  0  0  0  0  0  0  0
   -3.2449    1.3672   -0.7849 C   0  0  0  0  0  0  0  0  0  0  0  0
   -3.1258    2.2850   -1.9586 C   0  0  0  0  0  0  0  0  0  0  0  0
   -4.2273    1.8136    0.2424 C   0  0  0  0  0  2  0  0  0  0  0  0
   -2.1796   -0.0614    0.8880 C   0  0  0  0  0  0  0  0  0  0  0  0
   -2.1390   -1.4524    0.2800 C   0  0  0  0  0  0  0  0  0  0  0  0
   -3.5203   -2.0361    0.2529 C   0  0  0  0  0  0  0  0  0  0  0  0
   -1.2158   -2.2203    0.9447 O   0  0  0  0  0  0  0  0  0  0  0  0
    0.0466   -2.0892    0.3336 C   0  0  0  0  0  0  0  0  0  0  0  0
    0.3209   -3.3201   -0.4672 C   0  0  0  0  0  0  0  0  0  0  0  0
   -0.4899   -3.2565   -1.7480 C   0  0  0  0  0  0  0  0  0  0  0  0
    1.7659   -3.5044   -0.8249 C   0  0  0  0  0  0  0  0  0  0  0  0
    2.6078   -2.3298   -0.4956 C   0  0  0  0  0  0  0  0  0  0  0  0
    2.3801   -1.7566    0.6470 N   0  0  0  0  0  4  0  0  0  0  0  0
    2.2300   -1.0199    1.8962 C   0  0  0  0  0  0  0  0  0  0  0  0
   -0.1078   -4.5266    0.3495 C   0  0  0  0  0  0  0  0  0  0  0  0
   -1.4482   -4.5050    0.6696 O   0  0  0  0  0  1  0  0  0  0  0  0
  1  2  1  0
  2  3  1  0
  2  4  1  0
  4  5  1  0
  5  6  1  0
  6  7  1  0
  7  8  1  6
  7  9  1  0
  9 10  1  0
 10 11  1  0
 11 12  1  0
 12 13  1  1
 13 14  1  0
 13 15  1  0
 12 16  1  0
 16 17  1  0
 17 18  1  0
 17 19  1  0
 19 20  1  0
 20 21  1  0
 21 22  1  0
 21 23  1  0
 23 24  1  0
 24 25  2  3
 25 26  1  0
 21 27  1  0
 27 28  1  0
 26  1  1  0
 25  1  1  0
M  CHG  2  25   1  28  -1
M  RAD  2   9   2  15   3
M  END
$$$$
