
     RDKit          3D

 31 31  0  0  0  0  0  0  0  0999 V2000
    5.8908    1.2649   -0.0386 C   0  0  0  0  0  0  0  0  0  0  0  0
    7.0803    0.7043   -0.8205 C   0  0  0  0  0  0  0  0  0  0  0  0
    8.2553    1.6322   -0.6400 C   0  0  0  0  0  0  0  0  0  0  0  0
    7.4262   -0.6880   -0.3124 C   0  0  0  0  0  0  0  0  0  0  0  0
    6.2293   -1.5923   -0.4998 C   0  0  0  0  0  0  0  0  0  0  0  0
    5.0817   -1.0172    0.2867 C   0  0  0  0  0  0  0  0  0  0  0  0
    3.8528   -1.8665    0.1474 C   0  0  1  0  0  0  0  0  0  0  0  0
    4.0652   -3.2773    0.6418 C   0  0  0  0  0  0  0  0  0  0  0  0
    2.6919   -1.1837    0.8181 C   0  0  0  0  0  3  0  0  0  0  0  0
    2.5103    0.1614    0.1096 C   0  0  0  0  0  3  0  0  0  0  0  0
    1.7491   -0.1612   -1.1825 C   0  0  0  0  0  0  0  0  0  0  0  0
    0.4432   -0.7807   -0.7862 C   0  0  0  0  0  3  0  0  0  0  0  0
   -0.3440    0.1738    0.0547 C   0  0  0  0  0  0  0  0  0  0  0  0
   -0.3014   -1.1627   -2.0465 C   0  0  0  0  0  3  0  0  0  0  0  0
   -0.9954    0.0315   -2.6181 C   0  0  0  0  0  0  0  0  0  0  0  0
   -2.4694   -0.0707   -2.2854 C   0  0  0  0  0  0  0  0  0  0  0  0
   -3.0226    1.2470   -1.9716 N   0  0  0  0  0  0  0  0  0  0  0  0
   -2.7266   -1.0378   -1.1524 C   0  0  0  0  0  0  0  0  0  0  0  0
   -4.0133   -1.7857   -1.2918 C   0  0  0  0  0  0  0  0  0  0  0  0
   -5.2335   -0.9274   -1.2485 C   0  0  0  0  0  0  0  0  0  0  0  0
   -5.3540   -0.0410   -2.2869 O   0  0  0  0  0  0  0  0  0  0  0  0
   -5.5681   -0.3810    0.0950 C   0  0  0  0  0  0  0  0  0  0  0  0
   -5.5345    1.1152    0.1793 C   0  0  0  0  0  0  0  0  0  0  0  0
   -4.9343    1.5512    1.5077 C   0  0  2  0  0  0  0  0  0  0  0  0
   -5.7785    2.5229    2.0330 O   0  0  0  0  0  0  0  0  0  0  0  0
   -3.6149    2.1188    1.2072 N   0  0  0  0  0  0  0  0  0  0  0  0
   -2.6232    1.6981    2.1751 C   0  0  0  0  0  0  0  0  0  0  0  0
   -2.3648    0.2169    1.9869 C   0  0  0  0  0  0  0  0  0  0  0  0
   -0.9919   -0.1874    2.4495 C   0  0  0  0  0  0  0  0  0  0  0  0
    0.0970    0.2144    1.4845 C   0  0  2  0  0  0  0  0  0  0  0  0
    0.4972    1.5079    1.7707 F   0  0  0  0  0  0  0  0  0  0  0  0
  1  2  1  0
  2  3  1  0
  2  4  1  0
  4  5  1  0
  5  6  1  0
  6  7  1  0
  7  8  1  1
  7  9  1  0
  9 10  1  0
 10 11  1  0
 11 12  1  0
 12 13  1  0
 12 14  1  0
 14 15  1  0
 15 16  1  0
 16 17  1  0
 16 18  1  0
 18 19  1  0
 19 20  1  0
 20 21  1  0
 20 22  1  0
 22 23  1  0
 23 24  1  0
 24 25  1  6
 24 26  1  0
 26 27  1  0
 27 28  1  0
 28 29  1  0
 29 30  1  0
 30 31  1  1
 30 13  1  0
M  RAD  4   9   2  10   2  12   2  14   2
M  END
$$$$
