
     RDKit          3D

 25 24  0  0  0  0  0  0  0  0999 V2000
    6.3552    2.9595   -0.2899 C   0  0  0  0  0  0  0  0  0  0  0  0
    5.4450    1.7627   -0.1688 C   0  0  0  0  0  0  0  0  0  0  0  0
    5.4879    1.1459    1.2050 C   0  0  0  0  0  0  0  0  0  0  0  0
    5.7309    0.7395   -1.2454 C   0  0  0  0  0  0  0  0  0  0  0  0
    4.8389   -0.4577   -1.1414 C   0  0  0  0  0  0  0  0  0  0  0  0
    5.0193   -1.1506    0.1919 C   0  0  0  0  0  0  0  0  0  0  0  0
    4.1109   -2.3768    0.3236 C   0  0  1  0  0  0  0  0  0  0  0  0
    4.4030   -2.9627    1.6951 C   0  0  0  0  0  0  0  0  0  0  0  0
    2.6507   -1.9752    0.2837 C   0  0  0  0  0  3  0  0  0  0  0  0
    2.3892   -1.3072   -1.0545 C   0  0  0  0  0  0  0  0  0  0  0  0
    0.9314   -0.8899   -1.1221 C   0  0  0  0  0  0  0  0  0  0  0  0
    0.6079    0.0752   -0.0266 C   0  0  1  0  0  0  0  0  0  0  0  0
    1.3984    1.3445   -0.0483 C   0  0  0  0  0  0  0  0  0  0  0  0
   -0.8631    0.2722    0.2023 C   0  0  0  0  0  0  0  0  0  0  0  0
   -1.4726   -1.0283    0.5707 C   0  0  0  0  0  0  0  0  0  0  0  0
   -0.8783   -1.5966    1.8170 C   0  0  0  0  0  0  0  0  0  0  0  0
   -2.8492   -1.3191    0.2620 C   0  0  0  0  0  0  0  0  0  0  0  0
   -3.9954   -0.5860    0.7478 C   0  0  0  0  0  0  0  0  0  0  0  0
   -4.1534    0.8393    0.4405 C   0  0  0  0  0  0  0  0  0  0  0  0
   -3.0481    1.7004    0.9715 C   0  0  0  0  0  0  0  0  0  0  0  0
   -5.4575    1.4004    0.9602 C   0  0  0  0  0  0  0  0  0  0  0  0
   -6.6506    0.6917    0.3599 C   0  0  0  0  0  0  0  0  0  0  0  0
   -6.6125    0.8356   -1.1108 C   0  0  0  0  0  0  0  0  0  0  0  0
   -7.7402    1.3858   -1.7276 O   0  0  0  0  0  0  0  0  0  0  0  0
   -5.6481    0.4975   -1.8040 O   0  0  0  0  0  0  0  0  0  0  0  0
  1  2  1  0
  2  3  1  0
  2  4  1  0
  4  5  1  0
  5  6  1  0
  6  7  1  0
  7  8  1  1
  7  9  1  0
  9 10  1  0
 10 11  1  0
 11 12  1  0
 12 13  1  6
 12 14  1  0
 14 15  1  0
 15 16  1  0
 15 17  1  0
 17 18  1  0
 18 19  1  0
 19 20  1  0
 19 21  1  0
 21 22  1  0
 22 23  1  0
 23 24  1  0
 23 25  2  0
M  RAD  1   9   2
M  END
$$$$
