
     RDKit          3D

 11 11  0  0  0  0  0  0  0  0999 V2000
   -3.7215    0.3748   -1.4124 Br  0  0  0  0  0  0  0  0  0  0  0  0
   -2.6346    0.9923    0.0592 C   0  0  0  0  0  0  0  0  0  0  0  0
   -1.8923   -0.1196    0.6633 N   0  0  0  0  0  0  0  0  0  0  0  0
   -0.8563   -0.8087   -0.6173 S   0  0  0  0  0  0  0  0  0  0  0  0
   -0.9795    0.4891    1.5665 N   0  0  0  0  0  0  0  0  0  0  0  0
   -0.4614    1.9687    0.7878 S   0  0  0  0  0  0  0  0  0  0  0  0
    0.4465    1.5839   -0.4585 C   0  0  0  0  0  0  0  0  0  0  0  0
    0.6920    0.1303   -0.7421 C   0  0  0  0  0  0  0  0  0  0  0  0
    1.9099   -0.4685    0.4827 S   0  0  0  0  0  0  0  0  0  0  0  0
    3.3305    0.5042    0.2584 O   0  0  0  0  0  0  0  0  0  0  0  0
    4.1667   -0.0978   -0.5877 O   0  0  0  0  0  0  0  0  0  0  0  0
  1  2  1  0
  2  3  1  0
  3  4  1  0
  3  5  1  0
  5  6  1  0
  6  7  2  0
  7  8  1  0
  8  9  1  0
  9 10  1  0
 10 11  1  0
  8  4  1  0
M  END
$$$$
