
     RDKit          3D

 31 32  0  0  0  0  0  0  0  0999 V2000
    5.4558    2.2305    0.7900 C   0  0  0  0  0  0  0  0  0  0  0  0
    6.8051    1.5856    0.8607 C   0  0  0  0  0  0  0  0  0  0  0  0
    7.8535    2.4713    0.2501 C   0  0  0  0  0  0  0  0  0  0  0  0
    6.7847    0.2164    0.2168 C   0  0  0  0  0  0  0  0  0  0  0  0
    5.7795   -0.6347    0.9595 C   0  0  0  0  0  0  0  0  0  0  0  0
    4.3998   -0.0229    0.8886 C   0  0  0  0  0  0  0  0  0  0  0  0
    4.0086    0.0697   -0.5602 C   0  0  1  0  0  0  0  0  0  0  0  0
    3.9904   -1.2963   -1.1946 C   0  0  0  0  0  0  0  0  0  0  0  0
    2.7808    0.8679   -0.8060 C   0  0  0  0  0  3  0  0  0  0  0  0
    1.5491    0.3736   -0.1438 C   0  0  0  0  0  3  0  0  0  0  0  0
    1.4072   -1.1268   -0.1683 C   0  0  0  0  0  0  0  0  0  0  0  0
    0.1692   -1.6166    0.4976 C   0  0  2  0  0  0  0  0  0  0  0  0
   -1.1036   -1.1070   -0.1057 C   0  0  0  0  0  0  0  0  0  0  0  0
    0.1925   -1.5559    1.9891 C   0  0  0  0  0  3  0  0  0  0  0  0
   -0.4171   -0.2958    2.5244 C   0  0  0  0  0  0  0  0  0  0  0  0
   -1.8062   -0.1308    1.9484 C   0  0  0  0  0  0  0  0  0  0  0  0
   -2.7191   -1.1120    2.6775 C   0  0  0  0  0  0  0  0  0  0  0  0
   -2.3372    1.2661    2.2558 C   0  0  0  0  0  0  0  0  0  0  0  0
   -2.4157    2.1120    1.0069 C   0  0  0  0  0  0  0  0  0  0  0  0
   -3.8286    2.4072    0.5921 C   0  0  0  0  0  0  0  0  0  0  0  0
   -4.3794    3.6574    1.2279 C   0  0  0  0  0  0  0  0  0  0  0  0
   -4.7507    1.2311    0.7235 C   0  0  0  0  0  3  0  0  0  0  0  0
   -5.6152    1.1722   -0.5042 C   0  0  0  0  0  0  0  0  0  0  0  0
   -5.4748   -0.2014   -1.1439 C   0  0  0  0  0  0  0  0  0  0  0  0
   -4.0780   -0.7061   -0.7908 C   0  0  0  0  0  0  0  0  0  0  0  0
   -3.0325    0.0147   -1.6317 C   0  0  0  0  0  3  0  0  0  0  0  0
   -3.7812   -2.0074   -1.5140 C   0  0  0  0  0  0  0  0  0  0  0  0
   -2.5612   -1.3314   -2.1271 C   0  0  0  0  0  0  0  0  0  0  0  0
   -1.2927   -1.7810   -1.4637 C   0  0  2  0  0  0  0  0  0  0  0  0
   -1.3565   -3.2833   -1.2926 C   0  0  0  0  0  2  0  0  0  0  0  0
   -0.2264   -1.4663   -2.2771 F   0  0  0  0  0  0  0  0  0  0  0  0
  1  2  1  0
  2  3  1  0
  2  4  1  0
  4  5  1  0
  5  6  1  0
  6  7  1  0
  7  8  1  1
  7  9  1  0
  9 10  1  0
 10 11  1  0
 12 11  1  6
 12 13  1  0
 12 14  1  0
 14 15  1  0
 15 16  1  0
 16 17  1  0
 16 18  1  0
 18 19  1  0
 19 20  1  0
 20 21  1  0
 20 22  1  0
 22 23  1  0
 23 24  1  0
 24 25  1  0
 25 26  1  0
 25 27  1  0
 27 28  1  0
 28 29  1  0
 29 30  1  1
 29 31  1  0
 29 13  1  0
 28 26  1  0
M  RAD  6   9   2  10   2  14   2  22   2  26   2  30   3
M  END
$$$$
