
     RDKit          3D

 33 33  0  0  0  0  0  0  0  0999 V2000
    8.3142    1.6986   -1.4277 C   0  0  0  0  0  0  0  0  0  0  0  0
    7.9390    0.3136   -0.8912 C   0  0  0  0  0  0  0  0  0  0  0  0
    7.0197   -0.3165   -1.8745 C   0  0  0  0  0  0  0  0  0  0  0  0
    7.3452    0.5321    0.4618 C   0  0  0  0  0  0  0  0  0  0  0  0
    6.1132    1.3873    0.4038 C   0  0  0  0  0  0  0  0  0  0  0  0
    4.9588    0.7813   -0.3092 C   0  0  0  0  0  0  0  0  0  0  0  0
    4.4072   -0.4217    0.3739 C   0  0  1  0  0  0  0  0  0  0  0  0
    5.3334   -1.5647    0.5824 C   0  0  0  0  0  0  0  0  0  0  0  0
    3.8284    0.0289    1.7219 C   0  0  0  0  0  3  0  0  0  0  0  0
    2.7273    1.0512    1.5155 C   0  0  0  0  0  0  0  0  0  0  0  0
    1.6484    0.3894    0.6836 C   0  0  0  0  0  0  0  0  0  0  0  0
    1.0953   -0.8198    1.3805 C   0  0  2  0  0  0  0  0  0  0  0  0
    2.1221   -1.8681    1.6574 C   0  0  0  0  0  0  0  0  0  0  0  0
   -0.0739   -1.3521    0.5708 C   0  0  0  0  0  0  0  0  0  0  0  0
   -1.0978   -0.2264    0.5107 C   0  0  0  0  0  0  0  0  0  0  0  0
   -1.4648    0.0715    1.8605 N   0  0  0  0  0  0  0  0  0  0  0  0
   -2.6972    0.1417    2.1504 C   0  0  0  0  0  0  0  0  0  0  0  0
   -3.7077   -0.0824    1.1032 C   0  0  0  0  0  0  0  0  0  0  0  0
   -3.7389   -1.4984    0.6002 C   0  0  0  0  0  0  0  0  0  0  0  0
   -4.7998   -1.6111   -0.4582 C   0  0  0  0  0  0  0  0  0  0  0  0
   -6.1684   -1.2620    0.0604 C   0  0  0  0  0  0  0  0  0  0  0  0
   -6.5710   -2.0898    1.1062 O   0  0  0  0  0  0  0  0  0  0  0  0
   -0.4959    0.9943   -0.1543 C   0  0  0  0  0  0  0  0  0  0  0  0
   -1.0379    1.1528   -1.5563 C   0  0  0  0  0  0  0  0  0  0  0  0
   -1.8845   -0.0456   -1.9245 C   0  0  0  0  0  0  0  0  0  0  0  0
   -1.0391   -1.1811   -2.4612 C   0  0  0  0  0  0  0  0  0  0  0  0
   -2.9379    0.3221   -2.9543 C   0  0  0  0  0  3  0  0  0  0  0  0
   -2.9670    1.8388   -3.1375 C   0  0  0  0  0  0  0  0  0  0  0  0
   -3.3123    2.4328   -1.8184 C   0  0  0  0  0  0  0  0  0  0  0  0
   -4.0004    1.7606   -0.8963 C   0  0  0  0  0  0  0  0  0  0  0  0
   -4.3302    2.3663    0.3987 C   0  0  0  0  0  0  0  0  0  0  0  0
   -5.4517    1.6809    1.1095 C   0  0  0  0  0  0  0  0  0  0  0  0
   -5.0758    0.3065    1.6124 C   0  0  0  0  0  2  0  0  0  0  0  0
  1  2  1  0
  2  3  1  0
  2  4  1  0
  4  5  1  0
  5  6  1  0
  6  7  1  0
  7  8  1  1
  7  9  1  0
  9 10  1  0
 10 11  1  0
 11 12  1  0
 12 13  1  6
 12 14  1  0
 14 15  1  0
 15 16  1  0
 16 17  2  3
 17 18  1  0
 18 19  1  0
 19 20  1  0
 20 21  1  0
 21 22  1  0
 15 23  1  0
 23 24  1  0
 24 25  1  0
 25 26  1  0
 25 27  1  0
 27 28  1  0
 28 29  1  0
 29 30  2  3
 30 31  1  0
 31 32  1  0
 32 33  1  0
 33 18  1  0
M  RAD  3   9   2  27   2  33   3
M  END
$$$$
