
     RDKit          3D

 26 26  0  0  0  0  0  0  0  0999 V2000
   -3.1442    3.3760    0.5615 C   0  0  0  0  0  0  0  0  0  0  0  0
   -2.4389    2.5188   -0.4739 C   0  0  0  0  0  3  0  0  0  0  0  0
   -2.9795    1.1065   -0.4132 C   0  0  0  0  0  0  0  0  0  0  0  0
   -4.4457    1.0643   -0.6836 C   0  0  2  0  0  0  0  0  0  0  0  0
   -5.2120    1.6555    0.3210 O   0  0  0  0  0  0  0  0  0  0  0  0
   -4.8643   -0.3522   -0.9550 C   0  0  0  0  0  0  0  0  0  0  0  0
   -5.4528   -0.8937    0.3298 C   0  0  0  0  0  0  0  0  0  0  0  0
   -4.7972   -0.2710    1.3901 O   0  0  0  0  0  0  0  0  0  0  0  0
   -3.4711   -0.6244    1.3475 C   0  0  1  0  0  0  0  0  0  0  0  0
   -3.2859   -1.7211    0.5038 O   0  0  0  0  0  0  0  0  0  0  0  0
   -2.5921    0.5375    0.9325 C   0  0  1  0  0  0  0  0  0  0  0  0
   -1.2170    0.0347    0.8183 N   0  0  0  0  0  0  0  0  0  0  0  0
   -1.2253   -1.0228   -0.1513 C   0  0  0  0  0  3  0  0  0  0  0  0
   -0.0776   -1.0312   -1.0989 C   0  0  0  0  0  0  0  0  0  0  0  0
    1.0674   -1.8478   -0.5435 C   0  0  0  0  0  0  0  0  0  0  0  0
    0.6742   -3.1669   -0.3233 O   0  0  0  0  0  0  0  0  0  0  0  0
    1.5620   -1.2850    0.7563 C   0  0  0  0  0  3  0  0  0  0  0  0
    2.0461    0.1355    0.5174 C   0  0  0  0  0  3  0  0  0  0  0  0
    3.0706    0.2236   -0.5681 C   0  0  2  0  0  0  0  0  0  0  0  0
    2.5854   -0.1046   -1.8302 O   0  0  0  0  0  0  0  0  0  0  0  0
    4.2843   -0.6131   -0.2239 C   0  0  2  0  0  0  0  0  0  0  0  0
    4.7755   -0.2982    1.0393 O   0  0  0  0  0  0  0  0  0  0  0  0
    5.3859   -0.4634   -1.2225 C   0  0  0  0  0  3  0  0  0  0  0  0
    5.8757    0.9649   -1.3242 C   0  0  0  0  0  0  0  0  0  0  0  0
    6.4087    1.4424    0.0125 C   0  0  0  0  0  0  0  0  0  0  0  0
    7.4678    0.6358    0.4111 O   0  0  0  0  0  0  0  0  0  0  0  0
  1  2  1  0
  2  3  1  0
  3  4  1  0
  4  5  1  1
  4  6  1  0
  6  7  1  0
  7  8  1  0
  8  9  1  0
  9 10  1  6
  9 11  1  0
 11 12  1  6
 12 13  1  0
 13 14  1  0
 14 15  1  0
 15 16  1  0
 15 17  1  0
 17 18  1  0
 18 19  1  0
 19 20  1  6
 19 21  1  0
 21 22  1  1
 21 23  1  0
 23 24  1  0
 24 25  1  0
 25 26  1  0
 11  3  1  0
M  RAD  5   2   2  13   2  17   2  18   2  23   2
M  END
$$$$
