
     RDKit          3D

 30 32  0  0  0  0  0  0  0  0999 V2000
    4.8121   -0.7158   -0.7902 C   0  0  0  0  0  0  0  0  0  0  0  0
    3.6784   -0.2738    0.1765 C   0  0  0  0  0  0  0  0  0  0  0  0
    4.1342   -0.1574    1.6059 C   0  0  0  0  0  0  0  0  0  0  0  0
    2.3851   -1.0027   -0.1340 C   0  0  0  0  0  0  0  0  0  0  0  0
    2.1305   -2.1211    0.8389 C   0  0  0  0  0  0  0  0  0  0  0  0
    0.8257   -2.7757    0.4753 C   0  0  0  0  0  0  0  0  0  0  0  0
    0.9835   -4.2529    0.1801 C   0  0  1  0  0  0  0  0  0  0  0  0
    0.4886   -5.0571    1.3674 C   0  0  0  0  0  0  0  0  0  0  0  0
    0.2210   -4.6749   -1.0539 C   0  0  0  0  0  3  0  0  0  0  0  0
   -1.0947   -3.9407   -1.1951 C   0  0  0  0  0  0  0  0  0  0  0  0
   -2.0160   -4.1852   -0.0287 C   0  0  0  0  0  3  0  0  0  0  0  0
   -2.3939   -2.8526    0.5935 C   0  0  2  0  0  0  0  0  0  0  0  0
   -3.1793   -3.0823    1.8742 C   0  0  0  0  0  0  0  0  0  0  0  0
   -3.1768   -2.0540   -0.4134 C   0  0  0  0  0  3  0  0  0  0  0  0
   -3.2086   -0.6098    0.0603 C   0  0  0  0  0  0  0  0  0  0  0  0
   -4.1444    0.2175   -0.8114 C   0  0  0  0  0  0  0  0  0  0  0  0
   -5.2732    0.6045    0.0295 N   0  0  0  0  0  2  0  0  0  0  0  0
   -3.4305    1.4897   -1.2325 C   0  0  0  0  0  0  0  0  0  0  0  0
   -4.3198    2.7074   -1.0546 C   0  0  0  0  0  0  0  0  0  0  0  0
   -3.6781    3.6978   -0.1197 C   0  0  0  0  0  0  0  0  0  0  0  0
   -2.3230    3.7956   -0.4271 O   0  0  0  0  0  0  0  0  0  0  0  0
   -1.6622    4.0557    0.7806 C   0  0  0  0  0  0  0  0  0  0  0  0
   -0.4618    4.7349    0.5204 O   0  0  0  0  0  0  0  0  0  0  0  0
    0.6954    4.0962    1.6317 S   0  0  0  0  0  0  0  0  0  0  0  0
    1.4936    2.6884    0.7907 C   0  0  0  0  0  0  0  0  0  0  0  0
    2.5155    3.2838   -0.1658 C   0  0  0  0  0  0  0  0  0  0  0  0
    3.8591    2.7295    0.2068 C   0  0  0  0  0  0  0  0  0  0  0  0
    4.4785    1.8784   -0.8617 C   0  0  2  0  0  0  0  0  0  0  0  0
    3.5288    1.2701   -1.9291 C   0  0  0  0  0  0  0  0  0  0  0  0
    4.1323    0.5064   -0.9144 C   0  0  0  0  0  0  0  0  0  0  0  0
  1  2  1  0
  2  3  1  0
  2  4  1  0
  4  5  1  0
  5  6  1  0
  6  7  1  0
  7  8  1  1
  7  9  1  0
  9 10  1  0
 10 11  1  0
 11 12  1  0
 12 13  1  1
 12 14  1  0
 14 15  1  0
 15 16  1  0
 16 17  1  0
 16 18  1  0
 18 19  1  0
 19 20  1  0
 20 21  1  0
 21 22  1  0
 22 23  1  0
 23 24  1  0
 24 25  1  0
 25 26  1  0
 26 27  1  0
 28 27  1  1
 28 29  1  0
 28 30  1  0
 30  1  1  0
 30  2  1  0
 30 29  1  0
M  RAD  4   9   2  11   2  14   2  17   2
M  END
$$$$
