
     RDKit          3D

 14 13  0  0  0  0  0  0  0  0999 V2000
   -3.9121   -0.7784    2.1875 C   0  0  0  0  0  0  0  0  0  0  0  0
   -4.0330    0.1689    0.9971 C   0  0  0  0  0  0  0  0  0  0  0  0
   -2.8157    0.9267    0.8951 N   0  0  0  0  0  0  0  0  0  0  0  0
   -2.9267    2.0546    0.1732 O   0  0  0  0  0  0  0  0  0  0  0  0
   -1.6870    0.1085    0.5110 C   0  0  0  0  0  0  0  0  0  0  0  0
   -1.8113   -0.3895   -0.9119 C   0  0  0  0  0  0  0  0  0  0  0  0
   -0.6293   -1.2470   -1.3010 C   0  0  0  0  0  0  0  0  0  0  0  0
    0.6235   -0.4543   -1.1830 C   0  0  0  0  0  0  0  0  0  0  0  0
    0.6568    0.7421   -0.8061 O   0  0  0  0  0  0  0  0  0  0  0  0
    1.8477   -1.0535   -1.5043 O   0  0  0  0  0  0  0  0  0  0  0  0
    3.0326   -0.2880   -1.3863 C   0  0  0  0  0  0  0  0  0  0  0  0
    3.1565    0.1575    0.0480 C   0  0  0  0  0  0  0  0  0  0  0  0
    4.2792    0.9176    0.2960 O   0  0  0  0  0  0  0  0  0  0  0  0
    4.2187    1.3174    1.9847 S   0  0  0  0  0  0  0  0  0  0  0  0
  1  2  1  0
  2  3  1  0
  3  4  1  0
  3  5  1  0
  5  6  1  0
  6  7  1  0
  7  8  1  0
  8  9  2  0
  8 10  1  0
 10 11  1  0
 11 12  1  0
 12 13  1  0
 13 14  1  0
M  END
$$$$
