
     RDKit          3D

 28 32  0  0  0  0  0  0  0  0999 V2000
   -3.9927   -0.5756    3.9768 C   0  0  0  0  0  0  0  0  0  0  0  0
   -3.9904   -0.6295    2.5639 O   0  0  0  0  0  0  0  0  0  0  0  0
   -3.0619   -1.3146    1.8391 C   0  0  0  0  0  0  0  0  0  0  0  0
   -2.0610   -0.8130    1.2027 C   0  0  0  0  0  0  0  0  0  0  0  0
   -1.8742    0.7403    1.2542 C   0  0  0  0  0  0  0  0  0  0  0  0
   -1.6045    1.2811    0.0493 C   0  0  0  0  0  0  0  0  0  0  0  0
   -1.4859    0.7445   -1.2240 C   0  0  0  0  0  0  0  0  0  0  0  0
   -1.9129   -0.3050   -1.7927 C   0  0  0  0  0  0  0  0  0  0  0  0
   -2.6689   -1.4217   -1.5106 C   0  0  0  0  0  0  0  0  0  0  0  0
   -3.8520   -1.6163   -1.3818 O   0  0  0  0  0  0  0  0  0  0  0  0
   -1.8325   -2.7718   -1.3038 C   0  0  0  0  0  0  0  0  0  0  0  0
   -0.6260   -2.1282   -0.5369 C   0  0  0  0  0  0  0  0  0  0  0  0
    0.5836   -2.2750   -1.2199 C   0  0  0  0  0  0  0  0  0  0  0  0
    1.6262   -1.4232   -0.9010 C   0  0  0  0  0  0  0  0  0  0  0  0
    1.3302   -0.5160    0.0880 C   0  0  0  0  0  0  0  0  0  0  0  0
    0.2179   -0.4076    0.7144 C   0  0  0  0  0  0  0  0  0  0  0  0
   -0.9216   -1.2550    0.4340 C   0  0  0  0  0  0  0  0  0  0  0  0
   -1.1261    2.7341    0.2594 C   0  0  0  0  0  0  0  0  0  0  0  0
    0.4009    2.7286    0.3285 C   0  0  0  0  0  0  0  0  0  0  0  0
    0.9952    3.3390   -0.6923 C   0  0  0  0  0  0  0  0  0  0  0  0
    1.1959    2.1311    1.3813 C   0  0  0  0  0  0  0  0  0  0  0  0
    2.6779    2.1520    1.3493 C   0  0  0  0  0  0  0  0  0  0  0  0
    3.2826    1.1842    0.3499 C   0  0  0  0  0  0  0  0  0  0  0  0
    4.3912    1.1287   -0.4094 C   0  0  0  0  0  0  0  0  0  0  0  0
    4.3161   -0.1904   -1.1917 C   0  0  0  0  0  0  0  0  0  0  0  0
    4.5469    0.1098   -2.6578 C   0  0  0  0  0  0  0  0  0  0  0  0
    2.9383   -0.7182   -0.9520 C   0  0  0  0  0  0  0  0  0  0  0  0
    2.5076    0.0875   -0.0169 C   0  0  0  0  0  0  0  0  0  0  0  0
  1  2  1  0
  2  3  1  0
  3  4  2  3
  4  5  1  0
  5  6  2  0
  6  7  1  0
  7  8  2  0
  8  9  1  0
  9 10  2  0
  9 11  1  0
 11 12  1  0
 12 13  2  0
 13 14  1  0
 14 15  2  0
 15 16  1  0
 16 17  2  0
  6 18  1  0
 18 19  1  0
 19 20  2  0
 19 21  1  0
 21 22  1  0
 22 23  1  0
 23 24  2  0
 24 25  1  0
 25 26  1  0
 25 27  1  0
 27 28  2  0
 17  4  1  0
 17 12  1  0
 27 14  1  0
 28 15  1  0
 28 23  1  0
M  END
$$$$
