
     RDKit          3D

 54 56  0  0  0  0  0  0  0  0999 V2000
   -1.1193   -0.0961    1.2037 C   0  0  0  0  0  0  0  0  0  0  0  0
    0.0009   -0.7955    1.9388 C   0  0  0  0  0  0  0  0  0  0  0  0
   -0.3371   -1.1256    3.3501 C   0  0  0  0  0  0  0  0  0  0  0  0
    0.7247   -1.8191    1.1838 C   0  0  0  0  0  0  0  0  0  0  0  0
    1.2190   -2.8832    2.1629 C   0  0  0  0  0  0  0  0  0  0  0  0
    2.6267   -3.3374    1.7742 C   0  0  0  0  0  0  0  0  0  0  0  0
    3.6206   -2.7038    2.7538 C   0  0  1  0  0  0  0  0  0  0  0  0
    4.4925   -3.8045    3.2786 C   0  0  0  0  0  0  0  0  0  0  0  0
    4.3972   -1.6809    1.9524 C   0  0  0  0  0  3  0  0  0  0  0  0
    3.5603   -1.0164    0.9035 C   0  0  0  0  0  3  0  0  0  0  0  0
    4.1381    0.2948    0.4966 C   0  0  0  0  0  0  0  0  0  0  0  0
    3.9276    0.6217   -0.9553 C   0  0  2  0  0  0  0  0  0  0  0  0
    4.7334    1.7843   -1.4292 C   0  0  0  0  0  0  0  0  0  0  0  0
    4.3130    2.9955   -0.5866 C   0  0  0  0  0  0  0  0  0  0  0  0
    4.3632    2.0672   -2.8026 N   0  0  0  0  0  1  0  0  0  0  0  0
    6.2217    1.5719   -1.3188 C   0  0  0  0  0  0  0  0  0  0  0  0
    6.6300    1.3231    0.1173 C   0  0  0  0  0  0  0  0  0  0  0  0
    8.0993    1.1082    0.2675 C   0  0  0  0  0  0  0  0  0  0  0  0
    8.5658    0.0128   -0.4592 O   0  0  0  0  0  0  0  0  0  0  0  0
    8.9126    2.3507   -0.0314 C   0  0  0  0  0  0  0  0  0  0  0  0
    8.7015    2.8462   -1.4457 C   0  0  0  0  0  0  0  0  0  0  0  0
    2.4841    0.8555   -1.3008 C   0  0  0  0  0  0  0  0  0  0  0  0
    1.5782    0.6334   -0.0804 C   0  0  0  0  0  0  0  0  0  0  0  0
    2.1421    1.5903    0.9811 C   0  0  0  0  0  0  0  0  0  0  0  0
    1.0508    2.4703    1.5402 C   0  0  0  0  0  0  0  0  0  0  0  0
    0.1791    1.6674    2.4498 C   0  0  0  0  0  0  0  0  0  0  0  0
    0.0580    2.2349    3.8271 C   0  0  0  0  0  0  0  0  0  0  0  0
   -1.1131    1.3352    1.7979 C   0  0  0  0  0  3  0  0  0  0  0  0
    0.2333    1.1385   -0.4491 C   0  0  0  0  0  0  0  0  0  0  0  0
    0.1515    1.7518   -1.8062 C   0  0  0  0  0  0  0  0  0  0  0  0
   -0.8687    0.0673   -0.2385 C   0  0  0  0  0  0  0  0  0  0  0  0
   -0.2819   -1.0641   -0.8345 F   0  0  0  0  0  0  0  0  0  0  0  0
   -1.9407    0.5196   -1.1277 C   0  0  0  0  0  0  0  0  0  0  0  0
   -1.8093    0.4440   -2.5841 C   0  0  0  0  0  0  0  0  0  0  0  0
   -2.6179   -0.6047   -3.2083 C   0  0  0  0  0  0  0  0  0  0  0  0
   -1.9791   -1.9033   -3.5118 C   0  0  0  0  0  0  0  0  0  0  0  0
   -4.0921   -0.5937   -3.1133 C   0  0  0  0  0  0  0  0  0  0  0  0
   -4.7459    0.7177   -2.9011 C   0  0  0  0  0  0  0  0  0  0  0  0
   -4.5937   -1.7463   -2.3160 C   0  0  0  0  0  0  0  0  0  0  0  0
   -5.4970   -1.4688   -1.1820 C   0  0  0  0  0  0  0  0  0  0  0  0
   -5.6726   -2.6172   -0.2132 C   0  0  0  0  0  0  0  0  0  0  0  0
   -5.3133   -3.9428   -0.7845 C   0  0  0  0  0  2  0  0  0  0  0  0
   -7.1383   -2.6460    0.1725 C   0  0  0  0  0  0  0  0  0  0  0  0
   -4.7374   -2.3085    1.4246 Si  0  0  0  0  0  2  0  0  0  0  0  0
   -3.3492   -1.1854    0.8101 C   0  0  0  0  0  0  0  0  0  0  0  0
   -2.3815   -0.6705    1.7146 C   0  0  0  0  0  0  0  0  0  0  0  0
   -2.7108   -2.0626   -0.2102 C   0  0  0  0  0  0  0  0  0  0  0  0
   -2.1863   -3.3491    0.3278 C   0  0  0  0  0  2  0  0  0  0  0  0
   -4.2173   -0.0481    0.3104 C   0  0  0  0  0  0  0  0  0  0  0  0
   -4.9954    0.4458    1.5328 C   0  0  0  0  0  0  0  0  0  0  0  0
   -5.9005    1.5802    1.1738 C   0  0  0  0  0  0  0  0  0  0  0  0
   -5.0244    2.7122    0.6284 C   0  0  0  0  0  0  0  0  0  0  0  0
   -5.8646    3.8900    0.2452 C   0  0  0  0  0  3  0  0  0  0  0  0
   -6.6380    4.4435    1.3985 C   0  0  0  0  0  0  0  0  0  0  0  0
  1  2  1  0
  2  3  1  0
  2  4  1  0
  4  5  1  0
  5  6  1  0
  6  7  1  0
  7  8  1  6
  7  9  1  0
  9 10  1  0
 10 11  1  0
 11 12  1  0
 12 13  1  1
 13 14  1  0
 13 15  1  0
 13 16  1  0
 16 17  1  0
 17 18  1  0
 18 19  1  0
 18 20  1  0
 20 21  1  0
 12 22  1  0
 22 23  1  0
 23 24  1  0
 24 25  1  0
 25 26  1  0
 26 27  1  0
 26 28  1  0
 23 29  1  0
 29 30  1  0
 29 31  1  0
 31 32  1  0
 31 33  1  0
 33 34  1  0
 34 35  1  0
 35 36  1  0
 35 37  1  0
 37 38  1  0
 37 39  1  0
 39 40  1  0
 40 41  1  0
 41 42  1  0
 41 43  1  0
 41 44  1  0
 44 45  1  0
 45 46  1  0
 45 47  1  0
 47 48  1  0
 45 49  1  0
 49 50  1  0
 50 51  1  0
 51 52  1  0
 52 53  1  0
 53 54  1  0
 28  1  1  0
 31  1  1  0
 46  1  1  0
M  RAD  8   9   2  10   2  15   2  28   2  42   3  44   3  48   3  53   2
M  CHG  1  15   1
M  END
$$$$
