
     RDKit          3D

 30 29  0  0  0  0  0  0  0  0999 V2000
    8.0622    0.1868    0.4945 C   0  0  0  0  0  0  0  0  0  0  0  0
    7.8829    1.3893   -0.3851 C   0  0  0  0  0  0  0  0  0  0  0  0
    7.7569    2.6776    0.3657 C   0  0  0  0  0  0  0  0  0  0  0  0
    6.7633    1.1696   -1.3692 C   0  0  0  0  0  0  0  0  0  0  0  0
    5.4370    0.9103   -0.6884 C   0  0  0  0  0  0  0  0  0  0  0  0
    4.4152    0.7097   -1.8082 C   0  0  0  0  0  0  0  0  0  0  0  0
    4.7726   -0.4372   -2.6794 C   0  0  1  0  0  0  0  0  0  0  0  0
    6.0865   -0.3592   -3.3646 C   0  0  0  0  0  0  0  0  0  0  0  0
    4.4908   -1.7560   -2.0860 C   0  0  0  0  0  3  0  0  0  0  0  0
    3.0692   -2.0742   -1.7870 C   0  0  0  0  0  0  0  0  0  0  0  0
    2.4816   -1.1625   -0.7715 C   0  0  0  0  0  0  0  0  0  0  0  0
    3.1912   -1.2430    0.5409 C   0  0  2  0  0  0  0  0  0  0  0  0
    3.1507   -2.6298    1.1427 C   0  0  0  0  0  0  0  0  0  0  0  0
    2.6025   -0.2101    1.4751 C   0  0  0  0  0  0  0  0  0  0  0  0
    1.1567   -0.4284    1.7076 C   0  0  0  0  0  0  0  0  0  0  0  0
    0.6922   -1.6979    2.3048 C   0  0  0  0  0  2  0  0  0  0  0  0
    0.3250    0.5478    1.3614 C   0  0  0  0  0  0  0  0  0  0  0  0
   -1.1504    0.4445    1.5466 C   0  0  0  0  0  0  0  0  0  0  0  0
   -1.7742    0.5777    0.1734 C   0  0  0  0  0  0  0  0  0  0  0  0
   -3.2724    0.4775    0.3234 C   0  0  0  0  0  0  0  0  0  0  0  0
   -3.6891   -0.7190    0.8709 O   0  0  0  0  0  0  0  0  0  0  0  0
   -3.8921    0.6441   -1.0440 C   0  0  0  0  0  0  0  0  0  0  0  0
   -5.3970    0.5514   -0.9487 C   0  0  0  0  0  0  0  0  0  0  0  0
   -5.9848    0.7226   -2.3355 C   0  0  0  0  0  0  0  0  0  0  0  0
   -5.7150   -0.7153   -0.4242 O   0  0  0  0  0  0  0  0  0  0  0  0
   -7.0808   -0.7893   -0.3418 N   0  0  0  0  0  0  0  0  0  0  0  0
   -7.6528   -0.7198    0.9581 C   0  0  0  0  0  0  0  0  0  0  0  0
   -8.0734    0.4562    1.3873 C   0  0  0  0  0  0  0  0  0  0  0  0
   -8.6761    0.5877    2.7299 C   0  0  0  0  0  0  0  0  0  0  0  0
   -9.9784    1.0627    2.6515 O   0  0  0  0  0  0  0  0  0  0  0  0
  1  2  1  0
  2  3  1  0
  2  4  1  0
  4  5  1  0
  5  6  1  0
  6  7  1  0
  7  8  1  1
  7  9  1  0
  9 10  1  0
 10 11  1  0
 11 12  1  0
 12 13  1  1
 12 14  1  0
 14 15  1  0
 15 16  1  0
 15 17  2  3
 17 18  1  0
 18 19  1  0
 19 20  1  0
 20 21  1  0
 20 22  1  0
 22 23  1  0
 23 24  1  0
 23 25  1  0
 25 26  1  0
 26 27  1  0
 27 28  2  3
 28 29  1  0
 29 30  1  0
M  RAD  2   9   2  16   3
M  END
$$$$
