
     RDKit          3D

 17 16  0  0  0  0  0  0  0  0999 V2000
   -4.8203    1.6663    0.0587 C   0  0  0  0  0  0  0  0  0  0  0  0
   -4.4887    0.2183    0.3438 C   0  0  0  0  0  0  0  0  0  0  0  0
   -5.7050   -0.6268    0.0462 C   0  0  0  0  0  0  0  0  0  0  0  0
   -3.3802   -0.2247   -0.5740 C   0  0  0  0  0  0  0  0  0  0  0  0
   -3.0757   -1.6743   -0.2612 C   0  0  0  0  0  0  0  0  0  0  0  0
   -1.9654   -2.1740   -1.1566 C   0  0  0  0  0  0  0  0  0  0  0  0
   -0.7456   -1.3156   -0.8940 C   0  0  1  0  0  0  0  0  0  0  0  0
   -1.1190    0.1315   -1.2254 C   0  0  0  0  0  0  0  0  0  0  0  0
   -0.4499   -1.4292    0.5947 C   0  0  0  0  0  3  0  0  0  0  0  0
    0.7516   -0.5966    0.9111 C   0  0  0  0  0  0  0  0  0  0  0  0
    1.9336   -1.0939    0.1156 C   0  0  0  0  0  0  0  0  0  0  0  0
    3.1173   -0.2237    0.4693 C   0  0  2  0  0  0  0  0  0  0  0  0
    3.4020   -0.3204    1.9330 C   0  0  0  0  0  0  0  0  0  0  0  0
    2.9672    1.1790   -0.0359 C   0  0  0  0  0  0  0  0  0  0  0  0
    4.1785    1.9438    0.3642 C   0  0  0  0  0  0  0  0  0  0  0  0
    4.5046    2.0813    1.7404 N   0  0  0  0  0  1  0  0  0  0  0  0
    4.8950    2.4588   -0.5604 N   0  0  0  0  0  2  0  0  0  0  0  0
  1  2  1  0
  2  3  1  0
  2  4  1  0
  4  5  1  0
  5  6  1  0
  6  7  1  0
  7  8  1  1
  7  9  1  0
  9 10  1  0
 10 11  1  0
 11 12  1  0
 12 13  1  1
 12 14  1  0
 14 15  1  0
 15 16  1  0
 15 17  2  0
M  CHG  2  16   1  17  -1
M  RAD  2   9   2  16   2
M  END
$$$$
