
     RDKit          3D

 18 17  0  0  0  0  0  0  0  0999 V2000
   -4.0846   -1.3642    2.5462 C   0  0  0  0  0  0  0  0  0  0  0  0
   -3.0278   -1.7446    1.5453 C   0  0  0  0  0  0  0  0  0  0  0  0
   -2.7343   -2.9361    1.2993 O   0  0  0  0  0  0  0  0  0  0  0  0
   -2.3105   -0.7492    0.8266 N   0  0  0  0  0  0  0  0  0  0  0  0
   -1.2821   -1.0386   -0.1533 C   0  0  0  0  0  3  0  0  0  0  0  0
   -0.7748    0.3010   -0.6298 C   0  0  1  0  0  0  0  0  0  0  0  0
    0.3037    0.1821   -1.6465 C   0  0  0  0  0  3  0  0  0  0  0  0
    1.4436   -0.5811   -1.0322 C   0  0  1  0  0  0  0  0  0  0  0  0
    1.1474   -1.9627   -0.5977 C   0  0  0  0  0  0  0  0  0  0  0  0
    2.7634   -0.3940   -1.6701 C   0  0  0  0  0  0  0  0  0  0  0  0
    3.8165   -1.2182   -0.9559 C   0  0  0  0  0  0  0  0  0  0  0  0
    3.9631   -0.8513    0.4998 C   0  0  0  0  0  3  0  0  0  0  0  0
    4.3602    0.6093    0.6175 C   0  0  0  0  0  3  0  0  0  0  0  0
    4.4586    0.9872    1.9664 O   0  0  0  0  0  0  0  0  0  0  0  0
   -1.9010    1.2017   -0.9971 C   0  0  0  0  0  3  0  0  0  0  0  0
   -1.5064    2.5429   -1.4859 C   0  0  0  0  0  3  0  0  0  0  0  0
   -1.8344    3.5398   -0.4229 C   0  0  0  0  0  0  0  0  0  0  0  0
   -2.8006    3.4760    0.2904 O   0  0  0  0  0  0  0  0  0  0  0  0
  1  2  1  0
  2  3  2  0
  2  4  1  0
  4  5  1  0
  6  5  1  6
  6  7  1  0
  7  8  1  0
  8  9  1  6
  8 10  1  0
 10 11  1  0
 11 12  1  0
 12 13  1  0
 13 14  1  0
  6 15  1  0
 15 16  1  0
 16 17  1  0
 17 18  2  0
M  RAD  6   5   2   7   2  12   2  13   2  15   2  16   2
M  END
$$$$
