
     RDKit          3D

  4  3  0  0  0  0  0  0  0  0999 V2000
    1.4573   -0.5257    0.0616 C   0  0  0  0  0  0  0  0  0  0  0  0
    0.7100    0.5436   -0.0168 C   0  0  0  0  0  0  0  0  0  0  0  0
   -0.7351    0.5078   -0.0453 C   0  0  0  0  0  0  0  0  0  0  0  0
   -1.4321   -0.5257    0.0005 O   0  0  0  0  0  0  0  0  0  0  0  0
  1  2  2  0
  2  3  1  0
  3  4  2  0
M  END
$$$$
