
     RDKit          3D

 31 34  0  0  0  0  0  0  0  0999 V2000
    6.5548    1.0449    2.9862 C   0  0  0  0  0  0  0  0  0  0  0  0
    5.7106    0.6812    2.0294 C   0  0  0  0  0  0  0  0  0  0  0  0
    6.1625    0.6910    0.6190 C   0  0  0  0  0  0  0  0  0  0  0  0
    4.3339    0.2682    2.3424 C   0  0  0  0  0  0  0  0  0  0  0  0
    3.2870    1.1432    1.6791 C   0  0  0  0  0  3  0  0  0  0  0  0
    3.4206    1.1083    0.1689 C   0  0  0  0  0  0  0  0  0  0  0  0
    3.2471   -0.2870   -0.3225 C   0  0  0  0  0  3  0  0  0  0  0  0
    1.9293   -0.9071   -0.0005 C   0  0  0  0  0  0  0  0  0  0  0  0
    3.7280   -0.5274   -1.7141 C   0  0  0  0  0  0  0  0  0  0  0  0
    2.6215   -0.9135   -2.6741 C   0  0  0  0  0  0  0  0  0  0  0  0
    2.4977    0.0850   -3.8085 C   0  0  0  0  0  0  0  0  0  0  0  0
    1.0697    0.1913   -4.3023 C   0  0  0  0  0  3  0  0  0  0  0  0
    0.0951    0.3681   -3.1550 C   0  0  0  0  0  3  0  0  0  0  0  0
    0.8690    0.5002   -1.9028 C   0  0  0  0  0  0  0  0  0  0  0  0
    0.1362    0.6871   -0.6568 C   0  0  2  0  0  0  0  0  0  0  0  0
    0.8939    0.0632    0.4869 C   0  0  1  0  0  0  0  0  0  0  0  0
   -0.1371   -0.5885    1.3797 C   0  0  0  0  0  0  0  0  0  0  0  0
   -1.2499   -0.9127    0.4028 C   0  0  0  0  0  0  0  0  0  0  0  0
   -2.5155   -1.0767    1.1603 C   0  0  0  0  0  3  0  0  0  0  0  0
   -3.7374   -1.2433    0.3180 C   0  0  0  0  0  0  0  0  0  0  0  0
   -4.9337   -1.4076    1.2285 C   0  0  0  0  0  0  0  0  0  0  0  0
   -5.8273   -0.2008    1.2381 C   0  0  0  0  0  0  0  0  0  0  0  0
   -5.1705    0.9411    2.0194 C   0  0  0  0  0  0  0  0  0  0  0  0
   -3.7113    0.9196    1.6636 C   0  0  0  0  0  0  0  0  0  0  0  0
   -2.8891    1.9299    2.3820 C   0  0  0  0  0  0  0  0  0  0  0  0
   -3.6774   -2.4517   -0.5885 C   0  0  0  0  0  0  0  0  0  0  0  0
   -3.9744   -0.1368   -0.4881 O   0  0  0  0  0  0  0  0  0  0  0  0
   -3.5299    0.9829    0.1690 C   0  0  2  0  0  0  0  0  0  0  0  0
   -2.1289    1.3717   -0.1629 C   0  0  0  0  0  0  0  0  0  0  0  0
   -1.2691    0.2067   -0.6019 C   0  0  0  0  0  0  0  0  0  0  0  0
   -1.8053   -0.3147   -1.8954 C   0  0  0  0  0  0  0  0  0  0  0  0
  1  2  2  0
  2  3  1  0
  2  4  1  0
  4  5  1  0
  5  6  1  0
  6  7  1  0
  7  8  1  0
  7  9  1  0
  9 10  1  0
 10 11  1  0
 11 12  1  0
 12 13  1  0
 13 14  1  0
 15 14  1  6
 15 16  1  0
 16 17  1  1
 17 18  1  0
 18 19  1  0
 19 20  1  0
 20 21  1  0
 21 22  1  0
 22 23  1  0
 23 24  1  0
 24 25  1  0
 20 26  1  0
 20 27  1  0
 27 28  1  0
 28 29  1  1
 29 30  1  0
 30 31  1  0
 16  8  1  0
 30 15  1  0
 30 18  1  0
 28 24  1  0
M  RAD  5   5   2   7   2  12   2  13   2  19   2
M  END
$$$$
