
     RDKit          3D

 39 42  0  0  0  0  0  0  0  0999 V2000
    8.8598    0.9096   -0.6843 C   0  0  0  0  0  0  0  0  0  0  0  0
    8.5433    0.9910   -2.0632 O   0  0  0  0  0  0  0  0  0  0  0  0
    7.7222   -0.0304   -2.5860 C   0  0  0  0  0  0  0  0  0  0  0  0
    6.7395   -0.5172   -1.8066 C   0  0  0  0  0  0  0  0  0  0  0  0
    6.5545    0.0132   -0.4748 C   0  0  0  0  0  0  0  0  0  0  0  0
    5.6342   -0.4060    0.3269 C   0  0  0  0  0  0  0  0  0  0  0  0
    4.6698   -1.4601   -0.0022 C   0  0  0  0  0  0  0  0  0  0  0  0
    3.2734   -0.9098    0.1126 C   0  0  0  0  0  0  0  0  0  0  0  0
    3.0983    0.1964   -0.8103 N   0  0  0  0  0  0  0  0  0  0  0  0
    3.9632    1.2775   -0.3006 C   0  0  0  0  0  0  0  0  0  0  0  0
    1.7331    0.7111   -0.7600 C   0  0  0  0  0  0  0  0  0  0  0  0
    1.4627    1.3846    0.5452 C   0  0  0  0  0  0  0  0  0  0  0  0
    1.6033    0.5005    1.7553 C   0  0  0  0  0  0  0  0  0  0  0  0
    0.6390   -0.6223    1.6695 C   0  0  0  0  0  0  0  0  0  0  0  0
   -0.7044   -0.3967    1.6197 N   0  0  0  0  0  0  0  0  0  0  0  0
   -1.4239    0.1664    0.6186 C   0  0  0  0  0  0  0  0  0  0  0  0
   -2.6541    0.6246    0.9149 C   0  0  0  0  0  0  0  0  0  0  0  0
   -4.1618   -0.3455    1.4947 Br  0  0  0  0  0  0  0  0  0  0  0  0
   -1.9086   -0.9664   -0.4358 C   0  0  0  0  0  0  0  0  0  0  0  0
   -2.0741   -0.3036   -1.5760 C   0  0  0  0  0  0  0  0  0  0  0  0
   -1.7574    1.1686   -1.3772 C   0  0  0  0  0  0  0  0  0  0  0  0
   -2.4053    2.2436   -1.3142 C   0  0  0  0  0  0  0  0  0  0  0  0
   -4.1488    2.3807   -1.4962 S   0  0  0  0  0  0  0  0  0  0  0  0
   -4.8303    1.1183   -2.5896 C   0  0  0  0  0  0  0  0  0  0  0  0
   -1.7487    3.5620   -0.8021 C   0  0  0  0  0  0  0  0  0  0  0  0
   -1.1119    3.3015    0.4108 O   0  0  0  0  0  0  0  0  0  0  0  0
   -1.7667    3.2695    1.6093 C   0  0  0  0  0  0  0  0  0  0  0  0
   -1.1987    2.2025    2.5182 C   0  0  0  0  0  0  0  0  0  0  0  0
   -1.9521    1.0653    3.0662 C   0  0  0  0  0  0  0  0  0  0  0  0
   -1.4218   -0.3333    2.9411 C   0  0  0  0  0  0  0  0  0  0  0  0
   -2.1212   -1.5193    2.9088 C   0  0  0  0  0  0  0  0  0  0  0  0
   -2.4704   -2.8419    2.8547 C   0  0  0  0  0  0  0  0  0  0  0  0
   -1.5562   -2.6999    1.6364 S   0  0  0  0  0  0  0  0  0  0  0  0
   -2.0635   -2.2111    0.1451 C   0  0  0  0  0  0  0  0  0  0  0  0
   -2.7476   -3.3566   -0.4811 C   0  0  0  0  0  0  0  0  0  0  0  0
   -3.4727   -3.0400   -1.7394 C   0  0  0  0  0  0  0  0  0  0  0  0
   -4.8651   -2.5367   -1.4627 C   0  0  0  0  0  0  0  0  0  0  0  0
   -5.1898   -1.3676   -2.3774 C   0  0  0  0  0  0  0  0  0  0  0  0
   -4.7415   -0.2076   -2.0080 C   0  0  0  0  0  0  0  0  0  0  0  0
  1  2  1  0
  2  3  1  0
  3  4  2  3
  4  5  1  0
  5  6  2  3
  6  7  1  0
  7  8  1  0
  8  9  1  0
  9 10  1  0
  9 11  1  0
 11 12  1  0
 12 13  1  0
 13 14  1  0
 14 15  1  0
 15 16  1  0
 16 17  1  0
 17 18  1  0
 16 19  1  0
 19 20  2  3
 20 21  1  0
 21 22  2  3
 22 23  1  0
 23 24  1  0
 22 25  1  0
 25 26  1  0
 26 27  1  0
 27 28  1  0
 28 29  1  0
 29 30  1  0
 30 31  1  0
 31 32  1  0
 32 33  2  0
 33 34  2  0
 34 35  1  0
 35 36  1  0
 36 37  1  0
 37 38  1  0
 38 39  2  3
 30 15  1  0
 34 19  1  0
 39 24  1  0
 33 31  1  0
M  END
$$$$
