
     RDKit          3D

 16 15  0  0  0  0  0  0  0  0999 V2000
   -4.6661   -1.1990    0.5070 F   0  0  0  0  0  0  0  0  0  0  0  0
   -3.8721   -0.9383    1.6028 C   0  0  0  0  0  0  0  0  0  0  0  0
   -2.6064   -1.3902    1.4704 C   0  0  0  0  0  0  0  0  0  0  0  0
   -1.8475   -2.1148    0.4082 S   0  0  0  0  0  0  0  0  0  0  0  0
   -0.6751   -2.3719   -0.3433 C   0  0  0  0  0  0  0  0  0  0  0  0
    0.0879   -1.5732   -1.1543 O   0  0  0  0  0  0  0  0  0  0  0  0
    0.7529   -0.2138   -0.3512 S   0  0  0  0  0  0  0  0  0  0  0  0
    2.5626   -0.3248   -0.5137 C   0  0  0  0  0  3  0  0  0  0  0  0
    3.3930    1.0555    0.2938 S   0  0  0  0  0  0  0  0  0  0  0  0
    5.1646    0.8675    0.0859 C   0  0  0  0  0  0  0  0  0  0  0  0
    5.9509    1.9792    0.7301 C   0  0  0  0  0  0  0  0  0  0  0  0
    7.3045    1.7424    0.5139 O   0  0  0  0  0  1  0  0  0  0  0  0
   -2.7191   -0.8201   -1.1899 O   0  0  0  0  0  0  0  0  0  0  0  0
   -2.2029    0.5714   -0.3387 S   0  0  0  0  0  0  0  0  0  0  0  0
   -3.4433    1.8012   -0.4341 N   0  0  0  0  0  0  0  0  0  0  0  0
   -3.1840    2.9289   -0.7065 O   0  0  0  0  0  0  0  0  0  0  0  0
  1  2  1  0
  2  3  2  0
  3  4  1  0
  4  5  1  0
  5  6  1  0
  6  7  1  0
  7  8  1  0
  8  9  1  0
  9 10  1  0
 10 11  1  0
 11 12  1  0
  4 13  1  0
 13 14  1  0
 14 15  1  0
 15 16  2  0
M  CHG  1  12  -1
M  RAD  1   8   2
M  END
$$$$
