
     RDKit          3D

 27 27  0  0  0  0  0  0  0  0999 V2000
    7.3817    1.2172    1.1823 C   0  0  0  0  0  0  0  0  0  0  0  0
    6.3730    2.2357    0.7596 C   0  0  0  0  0  0  0  0  0  0  0  0
    7.0131    3.5006    0.2291 C   0  0  0  0  0  0  0  0  0  0  0  0
    5.4008    2.5920    1.8861 C   0  0  0  0  0  0  0  0  0  0  0  0
    4.4379    3.6179    1.3511 C   0  0  0  0  0  0  0  0  0  0  0  0
    3.6470    3.1152    0.1674 C   0  0  0  0  0  0  0  0  0  0  0  0
    2.8641    1.9153    0.5891 C   0  0  1  0  0  0  0  0  0  0  0  0
    1.8995    2.2279    1.7138 C   0  0  0  0  0  0  0  0  0  0  0  0
    2.1208    1.3041   -0.5929 C   0  0  0  0  0  3  0  0  0  0  0  0
    1.3350    0.0965   -0.1599 C   0  0  0  0  0  0  0  0  0  0  0  0
    0.3393    0.5234    0.8896 C   0  0  0  0  0  0  0  0  0  0  0  0
   -0.4826   -0.6869    1.3560 C   0  0  0  0  0  0  0  0  0  0  0  0
   -1.4792   -0.2598    2.4064 C   0  0  0  0  0  0  0  0  0  0  0  0
    0.4659   -1.7357    1.8537 C   0  0  0  0  0  0  0  0  0  0  0  0
   -1.1665   -1.1928    0.1370 C   0  0  0  0  0  0  0  0  0  0  0  0
   -0.9035   -2.4459   -0.2233 C   0  0  0  0  0  0  0  0  0  0  0  0
   -1.5180   -3.0724   -1.4172 C   0  0  0  0  0  0  0  0  0  0  0  0
   -2.7965   -3.8081   -1.1109 C   0  0  0  0  0  0  0  0  0  0  0  0
   -3.8183   -2.8363   -0.6250 C   0  0  0  0  0  0  0  0  0  0  0  0
   -4.1084   -2.9202    0.7127 O   0  0  0  0  0  0  0  0  0  0  0  0
   -4.9623   -2.6282   -1.5056 C   0  0  0  0  0  0  0  0  0  0  0  0
   -5.1027   -1.7801   -2.4790 C   0  0  0  0  0  0  0  0  0  0  0  0
   -4.1473   -0.7876   -2.9706 C   0  0  0  0  0  0  0  0  0  0  0  0
   -4.5192    0.6448   -2.6122 C   0  0  0  0  0  0  0  0  0  0  0  0
   -3.5275    1.1536   -1.7193 O   0  0  0  0  0  0  0  0  0  0  0  0
   -2.7233    0.3442   -1.0834 C   0  0  0  0  0  0  0  0  0  0  0  0
   -2.0229   -0.3346   -0.5326 C   0  0  0  0  0  0  0  0  0  0  0  0
  1  2  1  0
  2  3  1  0
  2  4  1  0
  4  5  1  0
  5  6  1  0
  6  7  1  0
  7  8  1  1
  7  9  1  0
  9 10  1  0
 10 11  1  0
 11 12  1  0
 12 13  1  0
 12 14  1  0
 12 15  1  0
 15 16  2  3
 16 17  1  0
 17 18  1  0
 18 19  1  0
 19 20  1  0
 19 21  1  0
 21 22  2  3
 22 23  1  0
 23 24  1  0
 24 25  1  0
 25 26  1  0
 26 27  3  0
 27 15  1  0
M  RAD  1   9   2
M  END
$$$$
