
     RDKit          3D

 35 37  0  0  0  0  0  0  0  0999 V2000
    0.0321    0.3367   -0.2238 N   0  0  0  0  0  0  0  0  0  0  0  0
    1.2088    0.2410    0.6171 C   0  0  0  0  0  0  0  0  0  0  0  0
    1.5441    0.8095    1.6712 O   0  0  0  0  0  0  0  0  0  0  0  0
    2.1628   -0.7768   -0.0254 C   0  0  0  0  0  0  0  0  0  0  0  0
    1.9838   -1.9934   -0.5899 C   0  0  0  0  0  0  0  0  0  0  0  0
    1.5769   -3.1502    0.2469 N   0  0  0  0  0  3  0  0  0  0  0  0
    2.5217   -2.8868    1.3371 N   0  0  0  0  0  0  0  0  0  0  0  0
    3.6692   -2.1797    0.8997 C   0  0  0  0  0  3  0  0  0  0  0  0
    4.1379   -1.1133    1.5811 O   0  0  0  0  0  0  0  0  0  0  0  0
    5.0131   -0.2660    0.9359 C   0  0  0  0  0  3  0  0  0  0  0  0
    4.6413    1.1369    0.6950 C   0  0  0  0  0  0  0  0  0  0  0  0
    4.0587    1.5415   -0.4819 O   0  0  0  0  0  0  0  0  0  0  0  0
    2.7051    2.1120   -0.7227 S   0  0  0  0  0  0  0  0  0  0  0  0
    3.7970    3.6807   -2.3255 O   0  0  0  0  0  0  0  0  0  0  0  0
    2.1507    3.7440    0.0377 O   0  0  0  0  0  0  0  0  0  0  0  0
    1.7516    1.7789   -1.9867 O   0  0  0  0  0  0  0  0  0  0  0  0
    0.0637    1.5594   -1.4752 P   0  0  0  0  0  0  0  0  0  0  0  0
   -0.8891    1.2309   -3.1043 C   0  0  0  0  0  2  0  0  0  0  0  0
   -0.5968    2.9150   -0.7273 O   0  0  0  0  0  0  0  0  0  0  0  0
   -1.8773    2.5931   -0.2910 C   0  0  0  0  0  0  0  0  0  0  0  0
   -1.8251    2.2116    1.1878 C   0  0  0  0  0  3  0  0  0  0  0  0
   -3.0373    1.5682    1.4859 O   0  0  0  0  0  0  0  0  0  0  0  0
   -3.2338    0.3935    0.8027 C   0  0  1  0  0  0  0  0  0  0  0  0
   -3.4842    0.5637   -0.6223 C   0  0  0  0  0  3  0  0  0  0  0  0
   -4.6137    1.5561   -0.7176 C   0  0  0  0  0  0  0  0  0  0  0  0
   -5.7107    1.2505   -0.0375 C   0  0  0  0  0  0  0  0  0  0  0  0
   -2.0091   -0.5750    1.0569 C   0  0  1  0  0  0  0  0  0  0  0  0
   -2.7061   -1.8708    0.7529 O   0  0  0  0  0  0  0  0  0  0  0  0
   -3.6198   -2.1729    1.6747 C   0  0  0  0  0  3  0  0  0  0  0  0
   -5.0290   -2.2424    1.0223 C   0  0  0  0  0  2  0  0  0  0  0  0
   -1.1171   -0.5573   -0.1359 C   0  0  2  0  0  0  0  0  0  0  0  0
   -0.5403   -1.9847   -0.4618 C   0  0  0  0  0  0  0  0  0  0  0  0
   -1.6011   -2.7010   -1.1478 C   0  0  0  0  0  3  0  0  0  0  0  0
   -1.3092   -4.1047   -1.5470 C   0  0  0  0  0  2  0  0  0  0  0  0
    0.1813   -2.6482    0.6186 C   0  0  0  0  0  3  0  0  0  0  0  0
  1  2  1  0
  2  3  2  0
  2  4  1  0
  4  5  2  3
  5  6  1  0
  6  7  1  0
  7  8  1  0
  8  9  1  0
  9 10  1  0
 10 11  1  0
 11 12  1  0
 12 13  1  0
 13 14  2  0
 13 15  1  0
 13 16  1  0
 16 17  1  0
 17 18  1  0
 17 19  1  0
 19 20  1  0
 20 21  1  0
 21 22  1  0
 22 23  1  0
 23 24  1  6
 24 25  1  0
 25 26  2  0
 23 27  1  0
 27 28  1  6
 28 29  1  0
 29 30  1  0
 27 31  1  0
 31 32  1  1
 32 33  1  0
 33 34  1  0
  6 35  1  0
 17  1  1  0
 31  1  1  0
 35 32  1  0
M  RAD  8   6   2   8   2  10   2  18   3  21   2  24   2  29   2  30   3
M  CHG  1   6   1
M  RAD  3  33   2  34   3  35   2
M  END
$$$$
