
     RDKit          3D

 16 18  0  0  0  0  0  0  0  0999 V2000
    0.5356   -2.6861   -0.8231 C   0  0  0  0  0  0  0  0  0  0  0  0
   -0.7531   -2.2401   -1.2690 O   0  0  0  0  0  0  0  0  0  0  0  0
   -1.3764   -1.1568   -0.6243 C   0  0  0  0  0  0  0  0  0  0  0  0
   -2.7434   -1.0925   -0.4871 C   0  0  0  0  0  0  0  0  0  0  0  0
   -3.3212   -0.0021    0.1603 C   0  0  0  0  0  0  0  0  0  0  0  0
   -2.4858    0.9665    0.6352 C   0  0  0  0  0  0  0  0  0  0  0  0
   -1.1012    0.9103    0.5010 C   0  0  0  0  0  0  0  0  0  0  0  0
   -0.5754   -0.1735   -0.1393 C   0  0  0  0  0  0  0  0  0  0  0  0
   -0.2394    1.9288    1.0123 N   0  0  0  0  0  0  0  0  0  0  0  0
    1.1037    2.1332    0.6554 C   0  0  0  0  0  0  0  0  0  0  0  0
    1.5497    3.5885    0.6403 C   0  0  0  0  0  0  0  0  0  0  0  0
    1.9454    1.2732    0.3615 C   0  0  0  0  0  0  0  0  0  0  0  0
    2.3367   -0.0406    0.1597 C   0  0  0  0  0  0  0  0  0  0  0  0
    1.7297   -1.1147    0.7959 O   0  0  0  0  0  0  0  0  0  0  0  0
    2.0282   -0.7069   -1.1342 C   0  0  0  0  0  0  0  0  0  0  0  0
    1.3668   -1.5873   -0.4446 C   0  0  0  0  0  0  0  0  0  0  0  0
  1  2  1  0
  2  3  1  0
  3  4  2  0
  4  5  1  0
  5  6  2  0
  6  7  1  0
  7  8  2  0
  7  9  1  0
  9 10  1  0
 10 11  1  0
 10 12  2  3
 12 13  1  0
 13 14  1  0
 13 15  1  0
 15 16  2  0
 16  1  1  0
  8  3  1  0
 16 14  1  0
M  END
$$$$
