
     RDKit          3D

 12 11  0  0  0  0  0  0  0  0999 V2000
   -3.3734    1.2297   -0.9943 C   0  0  0  0  0  0  0  0  0  0  0  0
   -2.2281    0.6183   -0.2792 C   0  0  0  0  0  0  0  0  0  0  0  0
   -1.8659    1.1260    0.7484 O   0  0  0  0  0  0  0  0  0  0  0  0
   -1.5845   -0.5619   -0.8313 C   0  0  0  0  0  0  0  0  0  0  0  0
   -0.3464   -1.0746   -0.2269 C   0  0  0  0  0  0  0  0  0  0  0  0
    0.0182   -2.3539   -1.0204 C   0  0  0  0  0  0  0  0  0  0  0  0
   -0.3999   -1.4253    1.2219 C   0  0  0  0  0  0  0  0  0  0  0  0
    0.7982   -0.0966   -0.4716 C   0  0  1  0  0  0  0  0  0  0  0  0
    0.5060    1.1140    0.0930 O   0  0  0  0  0  0  0  0  0  0  0  0
    2.1072   -0.6746    0.0655 C   0  0  0  0  0  0  0  0  0  0  0  0
    3.2477    0.3705   -0.2163 B   0  0  0  0  0  0  0  0  0  0  0  0
    3.1210    1.7282    0.3116 O   0  0  0  0  0  1  0  0  0  0  0  0
  1  2  1  0
  2  3  2  0
  2  4  1  0
  4  5  1  0
  5  6  1  0
  5  7  1  0
  5  8  1  0
  8  9  1  1
  8 10  1  0
 10 11  1  0
 11 12  1  0
M  CHG  1  12  -1
M  END
$$$$
