
     RDKit          3D

 27 28  0  0  0  0  0  0  0  0999 V2000
   -2.2908   -2.6390    0.0068 C   0  0  0  0  0  0  0  0  0  0  0  0
   -3.7790   -2.4950   -0.1788 C   0  0  0  0  0  0  0  0  0  0  0  0
   -4.3227   -3.8677   -0.5710 C   0  0  0  0  0  0  0  0  0  0  0  0
   -4.1447   -1.5522   -1.2954 C   0  0  0  0  0  0  0  0  0  0  0  0
   -5.2279   -0.5830   -0.8973 C   0  0  0  0  0  0  0  0  0  0  0  0
   -4.5342    0.7581   -0.6264 C   0  0  0  0  0  0  0  0  0  0  0  0
   -3.2560    0.4555    0.0803 C   0  0  1  0  0  0  0  0  0  0  0  0
   -2.2343   -0.2435   -0.7460 C   0  0  0  0  0  0  0  0  0  0  0  0
   -2.7389    1.5459    0.9447 C   0  0  0  0  0  3  0  0  0  0  0  0
   -2.0875    2.6778    0.1829 C   0  0  0  0  0  3  0  0  0  0  0  0
   -0.9392    3.1801    1.0359 C   0  0  0  0  0  0  0  0  0  0  0  0
    0.3506    3.0738    0.2852 C   0  0  2  0  0  0  0  0  0  0  0  0
    0.7343    4.4679   -0.1824 C   0  0  0  0  0  0  0  0  0  0  0  0
    0.1787    2.1472   -0.8946 C   0  0  0  0  0  0  0  0  0  0  0  0
    1.1533    1.0197   -0.7879 C   0  0  0  0  0  0  0  0  0  0  0  0
    0.6466   -0.1724   -0.0494 C   0  0  1  0  0  0  0  0  0  0  0  0
    1.8291   -0.8890    0.5685 C   0  0  0  0  0  0  0  0  0  0  0  0
    2.7465   -1.2984   -0.5668 C   0  0  0  0  0  0  0  0  0  0  0  0
    3.9467   -2.0184   -0.0216 C   0  0  0  0  0  0  0  0  0  0  0  0
    3.6304   -3.1681    0.6816 O   0  0  0  0  0  0  0  0  0  0  0  0
    4.8389   -1.1297    0.7941 C   0  0  0  0  0  0  0  0  0  0  0  0
    5.3253    0.0074   -0.0921 C   0  0  0  0  0  0  0  0  0  0  0  0
    6.2198    0.8899    0.7434 C   0  0  0  0  0  0  0  0  0  0  0  0
    6.7339    2.0507   -0.1092 C   0  0  0  0  0  0  0  0  0  0  0  0
   -0.2533    0.1070    0.9503 O   0  0  0  0  0  0  0  0  0  0  0  0
   -0.9798   -0.9717    1.1634 O   0  0  0  0  0  0  0  0  0  0  0  0
   -1.5457   -1.3530   -0.0265 C   0  0  0  0  0  0  0  0  0  0  0  0
  1  2  1  0
  2  3  1  0
  2  4  1  0
  4  5  1  0
  5  6  1  0
  7  6  1  6
  7  8  1  0
  7  9  1  0
  9 10  1  0
 10 11  1  0
 11 12  1  0
 12 13  1  6
 12 14  1  0
 14 15  1  0
 15 16  1  0
 16 17  1  1
 17 18  1  0
 18 19  1  0
 19 20  1  0
 19 21  1  0
 21 22  1  0
 22 23  1  0
 23 24  1  0
 16 25  1  0
 25 26  1  0
 26 27  1  0
 27  1  1  0
 27  8  1  0
M  RAD  2   9   2  10   2
M  END
$$$$
