
     RDKit          3D

 20 20  0  0  0  0  0  0  0  0999 V2000
   -3.7106    2.4857   -0.7282 C   0  0  0  0  0  0  0  0  0  0  0  0
   -3.5315    1.2656   -0.0841 O   0  0  0  0  0  0  0  0  0  0  0  0
   -3.5496    0.2341   -1.0201 C   0  0  0  0  0  0  0  0  0  0  0  0
   -3.3535   -1.1096   -0.3200 C   0  0  1  0  0  0  0  0  0  0  0  0
   -3.3667   -2.1524   -1.2216 O   0  0  0  0  0  0  0  0  0  0  0  0
   -2.0442   -1.0095    0.4382 C   0  0  2  0  0  0  0  0  0  0  0  0
   -2.1837    0.0891    1.3092 O   0  0  0  0  0  0  0  0  0  0  0  0
   -0.9724   -0.6933   -0.5418 C   0  0  0  0  0  3  0  0  0  0  0  0
    0.3968   -0.5588    0.0482 C   0  0  1  0  0  0  0  0  0  0  0  0
    0.9104   -1.7655    0.7409 C   0  0  2  0  0  0  0  0  0  0  0  0
    0.2737   -1.9691    2.0894 C   0  0  0  0  0  0  0  0  0  0  0  0
    0.6341   -0.5403    3.0822 Cl  0  0  0  0  0  0  0  0  0  0  0  0
    2.3663   -1.6958    0.9118 C   0  0  0  0  0  0  0  0  0  0  0  0
    3.0958   -0.6200    0.9196 C   0  0  0  0  0  0  0  0  0  0  0  0
    2.6749    0.6683    0.7722 O   0  0  0  0  0  0  0  0  0  0  0  0
    1.3456   -0.1879   -1.0793 C   0  0  0  0  0  3  0  0  0  0  0  0
    1.3066    1.2084   -1.1894 O   0  0  0  0  0  0  0  0  0  0  0  0
    2.6164    1.6951   -1.3879 C   0  0  0  0  0  3  0  0  0  0  0  0
    3.3798    1.5465   -0.1032 C   0  0  1  0  0  0  0  0  0  0  0  0
    3.7119    3.1096    0.6704 Cl  0  0  0  0  0  0  0  0  0  0  0  0
  1  2  1  0
  2  3  1  0
  3  4  1  0
  4  5  1  6
  4  6  1  0
  6  7  1  1
  6  8  1  0
  9  8  1  6
  9 10  1  0
 10 11  1  1
 11 12  1  0
 10 13  1  0
 13 14  2  3
 14 15  1  0
  9 16  1  0
 16 17  1  0
 17 18  1  0
 18 19  1  0
 19 20  1  1
 19 15  1  0
M  RAD  3   8   2  16   2  18   2
M  END
$$$$
