
     RDKit          3D

 47 47  0  0  0  0  0  0  0  0999 V2000
   -0.0009    7.9035   -1.9039 C   0  0  0  0  0  0  0  0  0  0  0  0
   -0.9614    7.0778   -1.1149 C   0  0  0  0  0  0  0  0  0  0  0  0
   -2.3574    7.2414   -1.6334 C   0  0  0  0  0  0  0  0  0  0  0  0
   -0.5787    5.6173   -1.1189 C   0  0  0  0  0  0  0  0  0  0  0  0
   -1.5700    4.8008   -0.3108 C   0  0  0  0  0  0  0  0  0  0  0  0
   -1.1970    3.3352   -0.3073 C   0  0  0  0  0  0  0  0  0  0  0  0
    0.1686    3.1676    0.2978 C   0  0  1  0  0  0  0  0  0  0  0  0
    0.1528    3.6870    1.7081 C   0  0  0  0  0  0  0  0  0  0  0  0
    0.7670    1.8358    0.1222 C   0  0  0  0  0  3  0  0  0  0  0  0
    0.0398    0.6844    0.6880 C   0  0  1  0  0  0  0  0  0  0  0  0
   -1.3173    0.5855    0.0715 C   0  0  0  0  0  0  0  0  0  0  0  0
   -2.3300   -0.1070    0.8997 C   0  0  1  0  0  0  0  0  0  0  0  0
   -2.9864    0.7125    1.9659 C   0  0  0  0  0  0  0  0  0  0  0  0
   -3.7240    1.9058    1.4597 C   0  0  0  0  0  3  0  0  0  0  0  0
   -4.8324    1.4965    0.5160 C   0  0  0  0  0  0  0  0  0  0  0  0
   -5.8098    0.6041    1.2274 C   0  0  0  0  0  0  0  0  0  0  0  0
   -3.3764   -0.8123    0.1146 C   0  0  1  0  0  0  0  0  0  0  0  0
   -3.0229   -0.9890   -1.3402 C   0  0  0  0  0  0  0  0  0  0  0  0
   -4.1631   -1.7159   -2.0122 C   0  0  0  0  0  0  0  0  0  0  0  0
   -5.4708   -0.9245   -1.9082 C   0  0  0  0  0  0  0  0  0  0  0  0
   -7.0313   -2.0297   -2.8825 I   0  0  0  0  0  0  0  0  0  0  0  0
   -5.3454    0.3935   -2.6492 C   0  0  0  0  0  0  0  0  0  0  0  0
   -3.8226   -2.1097    0.7492 C   0  0  0  0  0  0  0  0  0  0  0  0
   -2.5578   -2.8185    1.2234 C   0  0  2  0  0  0  0  0  0  0  0  0
   -2.8646   -4.2072    1.7341 C   0  0  0  0  0  2  0  0  0  0  0  0
   -1.9725   -1.9689    2.3302 C   0  0  0  0  0  3  0  0  0  0  0  0
   -0.8035   -2.5350    2.7775 O   0  0  0  0  0  0  0  0  0  0  0  0
    0.1943   -2.6290    1.8095 C   0  0  0  0  0  0  0  0  0  0  0  0
    0.9684   -1.3283    1.8537 C   0  0  0  0  0  3  0  0  0  0  0  0
    0.8757   -0.5548    0.5862 C   0  0  0  0  0  0  0  0  0  0  0  0
    0.2378   -1.4223   -0.5112 C   0  0  0  0  0  2  0  0  0  0  0  0
    2.2932   -0.2086    0.1300 C   0  0  0  0  0  0  0  0  0  0  0  0
    1.9278    0.4581   -1.3076 C   0  0  0  0  0  0  0  0  0  0  0  0
    3.2472    0.8696   -1.9158 C   0  0  0  0  0  2  0  0  0  0  0  0
    2.8095    0.9798    0.8655 C   0  0  0  0  0  0  0  0  0  0  0  0
    2.8692    0.8714    2.3503 C   0  0  0  0  0  0  0  0  0  0  0  0
    3.1748   -1.2333   -0.2158 C   0  0  0  0  0  0  0  0  0  0  0  0
    3.8088   -2.3728    0.2687 C   0  0  1  0  0  0  0  0  0  0  0  0
    4.6662   -2.9467   -0.9005 C   0  0  1  0  0  0  0  0  0  0  0  0
    5.4027   -4.1676   -0.5762 C   0  0  0  0  0  2  0  0  0  0  0  0
    3.8260   -3.0161   -2.1516 C   0  0  0  0  0  3  0  0  0  0  0  0
    4.7101   -3.5778   -3.2429 C   0  0  0  0  0  2  0  0  0  0  0  0
    4.7258   -2.3906    1.4487 C   0  0  0  0  0  0  0  0  0  0  0  0
    5.2116   -3.8531    1.6218 C   0  0  0  0  0  2  0  0  0  0  0  0
    4.0741   -2.0936    2.7791 C   0  0  0  0  0  2  0  0  0  0  0  0
    5.9570   -1.5855    1.2398 C   0  0  0  0  0  0  0  0  0  0  0  0
    5.9877   -0.6298    0.5107 O   0  0  0  0  0  0  0  0  0  0  0  0
  1  2  1  0
  2  3  1  0
  2  4  1  0
  4  5  1  0
  5  6  1  0
  6  7  1  0
  7  8  1  1
  7  9  1  0
 10  9  1  6
 10 11  1  0
 11 12  1  0
 12 13  1  1
 13 14  1  0
 14 15  1  0
 15 16  1  0
 12 17  1  0
 17 18  1  6
 18 19  1  0
 19 20  1  0
 20 21  1  0
 20 22  1  0
 17 23  1  0
 23 24  1  0
 24 25  1  1
 24 26  1  0
 26 27  1  0
 27 28  1  0
 28 29  1  0
 29 30  1  0
 30 31  1  0
 30 32  1  0
 32 33  1  0
 33 34  1  0
 32 35  1  0
 35 36  1  0
 32 37  1  0
 38 37  1  6
 38 39  1  0
 39 40  1  1
 39 41  1  0
 41 42  1  0
 38 43  1  0
 43 44  1  0
 43 45  1  0
 43 46  1  0
 46 47  2  0
 30 10  1  0
M  RAD  8   9   2  14   2  25   3  26   2  29   2  31   3  34   3  40   3
M  RAD  4  41   2  42   3  44   3  45   3
M  END
$$$$
