
     RDKit          3D

 39 40  0  0  0  0  0  0  0  0999 V2000
    4.7257   -0.9208   -1.6271 O   0  0  0  0  0  0  0  0  0  0  0  0
    5.9044   -0.3919   -1.7780 O   0  0  0  0  0  0  0  0  0  0  0  0
    5.8895    0.9907   -1.5393 C   0  0  0  0  0  3  0  0  0  0  0  0
    7.1239    1.4291   -1.0273 O   0  0  0  0  0  0  0  0  0  0  0  0
    7.0146    1.5590    0.3723 C   0  0  2  0  0  0  0  0  0  0  0  0
    7.8482    0.4871    1.0505 C   0  0  0  0  0  0  0  0  0  0  0  0
    6.8331   -0.4223    0.7558 O   0  0  0  0  0  0  0  0  0  0  0  0
    5.9201    0.6413    0.8127 C   0  0  1  0  0  0  0  0  0  0  0  0
    5.4070    0.9048    2.1784 C   0  0  0  0  0  3  0  0  0  0  0  0
    3.9426    0.9882    2.3240 C   0  0  0  0  0  0  0  0  0  0  0  0
    3.1383    0.2259    1.3291 C   0  0  2  0  0  0  0  0  0  0  0  0
    3.9217   -0.6629    0.4323 C   0  0  0  0  0  0  0  0  0  0  0  0
    3.9142   -0.2118   -0.8869 O   0  0  0  0  0  0  0  0  0  0  0  0
    2.2427    1.0564    0.6737 O   0  0  0  0  0  0  0  0  0  0  0  0
    1.5692    0.3361   -0.1815 O   0  0  0  0  0  0  0  0  0  0  0  0
    1.3362   -0.8647    0.2716 O   0  0  0  0  0  0  0  0  0  0  0  0
    0.0059   -1.2216    0.2711 C   0  0  0  0  0  3  0  0  0  0  0  0
   -0.8291   -0.0972   -0.2919 C   0  0  2  0  0  0  0  0  0  0  0  0
   -0.6397    1.1497    0.5700 C   0  0  0  0  0  0  0  0  0  0  0  0
   -1.4173    2.1835    0.0393 O   0  0  0  0  0  0  0  0  0  0  0  0
   -0.9794    2.4149   -1.2707 C   0  0  0  0  0  3  0  0  0  0  0  0
   -2.1376    2.0913   -2.1989 C   0  0  0  0  0  2  0  0  0  0  0  0
   -2.2960   -0.4617   -0.2431 C   0  0  2  0  0  0  0  0  0  0  0  0
   -2.7616   -0.7242    1.1701 C   0  0  0  0  0  0  0  0  0  0  0  0
   -2.0346   -1.7815    1.7242 O   0  0  0  0  0  0  0  0  0  0  0  0
   -2.4916   -1.9930    3.0247 C   0  0  0  0  0  2  0  0  0  0  0  0
   -2.6418   -1.5807   -1.1756 C   0  0  2  0  0  0  0  0  0  0  0  0
   -2.3485   -1.2317   -2.4704 O   0  0  0  0  0  0  0  0  0  0  0  0
   -2.6462   -2.2051   -3.3085 O   0  0  0  0  0  0  0  0  0  0  0  0
   -4.1021   -1.9196   -0.9916 C   0  0  2  0  0  0  0  0  0  0  0  0
   -5.0139   -0.7861   -1.4083 C   0  0  0  0  0  0  0  0  0  0  0  0
   -4.7265    0.3116   -0.5996 O   0  0  0  0  0  0  0  0  0  0  0  0
   -5.7004    1.6610   -0.9802 S   0  0  0  0  0  0  0  0  0  0  0  0
   -6.0983    2.5904    0.3933 O   0  0  0  0  0  0  0  0  0  0  0  0
   -5.4045    3.8128    0.2931 C   0  0  0  0  0  2  0  0  0  0  0  0
   -4.3043   -2.2582    0.3403 O   0  0  0  0  0  0  0  0  0  0  0  0
   -5.6404   -2.5693    0.5127 C   0  0  0  0  0  3  0  0  0  0  0  0
   -6.3526   -1.4218    0.8303 O   0  0  0  0  0  0  0  0  0  0  0  0
   -6.1710   -1.1075    2.1714 C   0  0  0  0  0  2  0  0  0  0  0  0
  1  2  1  0
  2  3  1  0
  3  4  1  0
  4  5  1  0
  5  6  1  1
  6  7  1  0
  5  8  1  0
  8  9  1  1
  9 10  1  0
 10 11  1  0
 11 12  1  0
 12 13  1  0
 11 14  1  6
 14 15  1  0
 15 16  1  0
 16 17  1  0
 18 17  1  1
 18 19  1  0
 19 20  1  0
 20 21  1  0
 21 22  1  0
 18 23  1  0
 23 24  1  1
 24 25  1  0
 25 26  1  0
 23 27  1  0
 27 28  1  6
 28 29  1  0
 27 30  1  0
 30 31  1  1
 31 32  1  0
 32 33  1  0
 33 34  1  0
 34 35  1  0
 30 36  1  0
 36 37  1  0
 37 38  1  0
 38 39  1  0
 13  1  1  0
  8  7  1  0
M  RAD  8   3   2   9   2  17   2  21   2  22   3  26   3  35   3  37   2
M  RAD  1  39   3
M  END
$$$$
