
     RDKit          3D

 24 25  0  0  0  0  0  0  0  0999 V2000
   -1.9973   -0.7913    1.8671 C   0  0  0  0  0  0  0  0  0  0  0  0
   -2.0998   -0.7620    0.3558 C   0  0  1  0  0  0  0  0  0  0  0  0
   -3.4661   -1.1540   -0.1294 C   0  0  0  0  0  0  0  0  0  0  0  0
   -4.5152   -0.1087    0.0742 C   0  0  2  0  0  0  0  0  0  0  0  0
   -5.5991   -0.4253   -0.7497 O   0  0  0  0  0  0  0  0  0  0  0  0
   -4.0841    1.2849   -0.2711 C   0  0  2  0  0  0  0  0  0  0  0  0
   -3.8561    1.3998   -1.6429 O   0  0  0  0  0  0  0  0  0  0  0  0
   -2.7435    1.5708    0.4004 C   0  0  1  0  0  0  0  0  0  0  0  0
   -2.9416    1.2747    1.7597 O   0  0  0  0  0  0  0  0  0  0  0  0
   -1.7825    0.5847   -0.2254 C   0  0  1  0  0  0  0  0  0  0  0  0
   -0.4093    0.9696   -0.1242 N   0  0  0  0  0  0  0  0  0  0  0  0
    0.3469    0.0895   -1.0107 C   0  0  0  0  0  3  0  0  0  0  0  0
    1.3188   -0.6992   -0.1762 C   0  0  0  0  0  0  0  0  0  0  0  0
    0.7616   -2.0048    0.3147 C   0  0  0  0  0  0  0  0  0  0  0  0
    2.4944   -1.0089   -0.8819 O   0  0  0  0  0  0  0  0  0  0  0  0
    3.4267   -1.3692    0.1051 C   0  0  1  0  0  0  0  0  0  0  0  0
    4.2779   -2.3540   -0.3699 O   0  0  0  0  0  0  0  0  0  0  0  0
    5.5524   -2.0968    0.1171 C   0  0  0  0  0  2  0  0  0  0  0  0
    4.1485   -0.1836    0.6772 C   0  0  0  0  0  0  0  0  0  0  0  0
    3.8244    1.0156    0.0688 O   0  0  0  0  0  0  0  0  0  0  0  0
    2.5031    1.3566    0.2859 C   0  0  2  0  0  0  0  0  0  0  0  0
    2.3363    2.5520    0.9594 O   0  0  0  0  0  0  0  0  0  0  0  0
    1.7772    0.2009    0.9627 C   0  0  1  0  0  0  0  0  0  0  0  0
    0.7263    0.6587    1.7343 O   0  0  0  0  0  0  0  0  0  0  0  0
  2  1  1  1
  2  3  1  0
  3  4  1  0
  4  5  1  6
  4  6  1  0
  6  7  1  6
  6  8  1  0
  8  9  1  1
  8 10  1  0
 10 11  1  1
 11 12  1  0
 12 13  1  0
 13 14  1  0
 13 15  1  0
 15 16  1  0
 16 17  1  6
 17 18  1  0
 16 19  1  0
 19 20  1  0
 20 21  1  0
 21 22  1  1
 21 23  1  0
 23 24  1  6
 10  2  1  0
 23 13  1  0
M  RAD  2  12   2  18   3
M  END
$$$$
