
     RDKit          3D

 40 45  0  0  0  0  0  0  0  0999 V2000
    7.6170    1.4932    4.7841 C   0  0  0  0  0  0  0  0  0  0  0  0
    7.2614    0.5633    3.6907 C   0  0  0  0  0  0  0  0  0  0  0  0
    6.3267    0.8791    2.7756 C   0  0  0  0  0  0  0  0  0  0  0  0
    6.0147   -0.0126    1.7624 O   0  0  0  0  0  0  0  0  0  0  0  0
    5.8550    0.4463    0.4365 C   0  0  0  0  0  0  0  0  0  0  0  0
    5.2898   -0.5922   -0.4533 C   0  0  0  0  0  0  0  0  0  0  0  0
    5.8331   -0.6822   -1.7125 C   0  0  0  0  0  0  0  0  0  0  0  0
    5.3986   -1.6027   -2.6365 C   0  0  0  0  0  0  0  0  0  0  0  0
    4.3827   -2.4694   -2.2953 C   0  0  0  0  0  0  0  0  0  0  0  0
    3.8368   -3.6368   -3.4781 Cl  0  0  0  0  0  0  0  0  0  0  0  0
    3.8249   -2.3865   -1.0209 C   0  0  0  0  0  0  0  0  0  0  0  0
    4.2776   -1.4542   -0.1105 C   0  0  0  0  0  0  0  0  0  0  0  0
    3.5345   -1.3906    1.5000 S   0  0  0  0  0  0  0  0  0  0  0  0
    5.6609    2.1751    2.8844 C   0  0  0  0  0  0  0  0  0  0  0  0
    4.3846    2.2979    2.5301 C   0  0  0  0  0  0  0  0  0  0  0  0
    3.5765    1.1989    2.0253 C   0  0  0  0  0  0  0  0  0  0  0  0
    2.2642    1.2192    2.3012 C   0  0  0  0  0  0  0  0  0  0  0  0
    1.3799    0.1583    1.8348 C   0  0  0  0  0  0  0  0  0  0  0  0
    1.8050   -1.0211    1.4577 C   0  0  0  0  0  0  0  0  0  0  0  0
    0.6434   -2.2372    0.9078 S   0  0  0  0  0  0  0  0  0  0  0  0
   -1.0274   -1.6540    0.9451 C   0  0  0  0  0  0  0  0  0  0  0  0
   -1.3582   -0.5626    0.2794 C   0  0  0  0  0  0  0  0  0  0  0  0
   -0.3244    0.1689   -0.4970 C   0  0  0  0  0  0  0  0  0  0  0  0
   -2.7286   -0.0325    0.2741 C   0  0  0  0  0  0  0  0  0  0  0  0
   -3.2414    0.0059   -1.0894 C   0  0  0  0  0  0  0  0  0  0  0  0
   -2.5244    0.9347   -2.1559 C   0  0  0  0  0  0  0  0  0  0  0  0
   -3.8028    1.7300   -2.8697 C   0  0  0  0  0  0  0  0  0  0  0  0
   -4.7601    0.9147   -2.7442 C   0  0  0  0  0  0  0  0  0  0  0  0
   -5.0964   -0.4304   -3.4107 C   0  0  0  0  0  0  0  0  0  0  0  0
   -4.6883   -1.4773   -2.4210 C   0  0  0  0  0  0  0  0  0  0  0  0
   -4.3239   -0.7552   -1.2189 C   0  0  0  0  0  0  0  0  0  0  0  0
   -5.2389   -0.5301   -0.0341 C   0  0  0  0  0  0  0  0  0  0  0  0
   -5.3699    1.0276   -0.2697 C   0  0  0  0  0  0  0  0  0  0  0  0
   -5.3113    1.4731   -1.5065 C   0  0  0  0  0  0  0  0  0  0  0  0
   -6.1163    2.6676   -2.2721 S   0  0  0  0  0  0  0  0  0  0  0  0
   -7.7883    2.0238   -1.5384 C   0  0  0  0  0  0  0  0  0  0  0  0
   -7.5715    0.9724   -0.3722 C   0  0  0  0  0  0  0  0  0  0  0  0
   -6.6397   -0.0031   -0.3328 C   0  0  0  0  0  0  0  0  0  0  0  0
   -5.6933    0.9676    1.0047 C   0  0  0  0  0  0  0  0  0  0  0  0
   -5.5623   -0.3869    2.0807 Cl  0  0  0  0  0  0  0  0  0  0  0  0
  1  2  1  0
  2  3  2  3
  3  4  1  0
  4  5  1  0
  5  6  1  0
  6  7  2  0
  7  8  1  0
  8  9  2  0
  9 10  1  0
  9 11  1  0
 11 12  2  0
 12 13  1  0
  3 14  1  0
 14 15  2  3
 15 16  1  0
 16 17  2  3
 17 18  1  0
 18 19  2  3
 19 20  1  0
 20 21  1  0
 21 22  2  3
 22 23  1  0
 22 24  1  0
 24 25  1  0
 25 26  1  0
 26 27  1  0
 27 28  2  0
 28 29  1  0
 29 30  2  0
 30 31  1  0
 31 32  1  0
 32 33  1  0
 33 34  2  0
 34 35  1  0
 35 36  1  0
 36 37  1  0
 37 38  2  0
 38 39  1  0
 39 40  1  0
 12  6  1  0
 19 13  1  0
 25 31  2  0
 34 28  1  0
 38 32  1  0
 39 33  1  0
M  END
$$$$
