
     RDKit          3D

  6  5  0  0  0  0  0  0  0  0999 V2000
    2.5573    0.8855   -0.1644 Br  0  0  0  0  0  0  0  0  0  0  0  0
    1.8472   -0.7796    0.3330 N   0  0  0  0  0  2  0  0  0  0  0  0
    0.4997   -0.5718    0.7912 C   0  0  0  0  0  3  0  0  0  0  0  0
   -0.6156   -0.8675   -0.6147 S   0  0  0  0  0  0  0  0  0  0  0  0
   -2.1546    0.0340   -0.3626 C   0  0  0  0  0  0  0  0  0  0  0  0
   -2.1340    1.2994   -0.9037 F   0  0  0  0  0  0  0  0  0  0  0  0
  1  2  1  0
  2  3  1  0
  3  4  1  0
  4  5  1  0
  5  6  1  0
M  CHG  1   2   1
M  RAD  2   2   3   3   2
M  END
$$$$
