
     RDKit          2D

 78 88  0  0  0  0  0  0  0  0999 V2000
    0.1994   12.6194    0.0000 N   0  0  0  0  0  0  0  0  0  0  0  0
    1.0810   11.4058    0.0000 C   0  0  0  0  0  0  0  0  0  0  0  0
    2.5728   11.5626    0.0000 N   0  0  0  0  0  0  0  0  0  0  0  0
    3.4545   10.3491    0.0000 C   0  0  0  0  0  0  0  0  0  0  0  0
    4.9463   10.5059    0.0000 Cl  0  0  0  0  0  0  0  0  0  0  0  0
    2.8444    8.9788    0.0000 N   0  0  0  0  0  0  0  0  0  0  0  0
    1.3526    8.8220    0.0000 C   0  0  0  0  0  0  0  0  0  0  0  0
    0.4709   10.0355    0.0000 C   0  0  0  0  0  0  0  0  0  0  0  0
   -0.9556    9.5720    0.0000 N   0  0  0  0  0  0  0  0  0  0  0  0
   -0.9556    8.0720    0.0000 N   0  0  0  0  0  0  0  0  0  0  0  0
    0.4709    7.6085    0.0000 C   0  0  0  0  0  0  0  0  0  0  0  0
    0.9345    6.1819    0.0000 C   0  0  0  0  0  3  0  0  0  0  0  0
   -0.0692    5.0672    0.0000 O   0  0  0  0  0  0  0  0  0  0  0  0
    0.3943    3.6406    0.0000 C   0  0  0  0  0  0  0  0  0  0  0  0
    1.8209    3.1771    0.0000 C   0  0  0  0  0  0  0  0  0  0  0  0
    1.8209    1.6771    0.0000 S   0  0  0  0  0  0  0  0  0  0  0  0
    3.0344    0.7954    0.0000 C   0  0  0  0  0  0  0  0  0  0  0  0
    4.4047    1.4055    0.0000 C   0  0  0  0  0  0  0  0  0  0  0  0
    5.2864    2.6190    0.0000 C   0  0  0  0  0  0  0  0  0  0  0  0
    5.8965    1.2487    0.0000 C   0  0  0  0  0  0  0  0  0  0  0  0
    7.1100    0.3670    0.0000 C   0  0  0  0  0  0  0  0  0  0  0  0
    6.9532   -1.1248    0.0000 O   0  0  0  0  0  0  0  0  0  0  0  0
    8.4804    0.9771    0.0000 O   0  0  0  0  0  0  0  0  0  0  0  0
   -0.4874    2.4271    0.0000 C   0  0  0  0  0  0  0  0  0  0  0  0
   -1.9874    2.4271    0.0000 O   0  0  0  0  0  0  0  0  0  0  0  0
    0.3943    1.2135    0.0000 C   0  0  0  0  0  0  0  0  0  0  0  0
    1.2760    0.0000    0.0000 C   0  0  0  0  0  3  0  0  0  0  0  0
    0.3943   -1.2135    0.0000 N   0  0  0  0  0  0  0  0  0  0  0  0
   -1.0323   -0.7500    0.0000 C   0  0  0  0  0  0  0  0  0  0  0  0
   -1.0323    0.7500    0.0000 S   0  0  0  0  0  0  0  0  0  0  0  0
   -1.9140   -0.4635    0.0000 N   0  0  0  0  0  0  0  0  0  0  0  0
   -1.0323   -1.6771    0.0000 N   0  0  0  0  0  0  0  0  0  0  0  0
   -1.4958   -3.1036    0.0000 C   0  0  0  0  0  3  0  0  0  0  0  0
   -2.9630   -3.4155    0.0000 S   0  0  0  0  0  0  0  0  0  0  0  0
   -3.4266   -4.8421    0.0000 N   0  0  0  0  0  0  0  0  0  0  0  0
   -2.3424   -5.8787    0.0000 C   0  0  0  0  0  0  0  0  0  0  0  0
   -2.4768   -7.3726    0.0000 C   0  0  0  0  0  3  0  0  0  0  0  0
   -3.7287   -8.1990    0.0000 N   0  0  0  0  0  0  0  0  0  0  0  0
   -5.1305   -7.4607    0.0000 C   0  0  0  0  0  0  0  0  0  0  0  0
   -4.1436   -6.3311    0.0000 N   0  0  0  0  0  0  0  0  0  0  0  0
   -4.9130   -5.0434    0.0000 C   0  0  0  0  0  0  0  0  0  0  0  0
   -6.3754   -5.3772    0.0000 O   0  0  0  0  0  0  0  0  0  0  0  0
   -6.5098   -6.8712    0.0000 C   0  0  0  0  0  0  0  0  0  0  0  0
   -7.7975   -7.6405    0.0000 C   0  0  0  0  0  3  0  0  0  0  0  0
   -9.1076   -6.9100    0.0000 C   0  0  0  0  0  0  0  0  0  0  0  0
   -0.9380   -5.3516    0.0000 N   0  0  0  0  0  0  0  0  0  0  0  0
    0.2206   -6.3043    0.0000 S   0  0  0  0  0  0  0  0  0  0  0  0
    1.6250   -5.7772    0.0000 N   0  0  0  0  0  0  0  0  0  0  0  0
   -0.0251   -7.7840    0.0000 N   0  0  0  0  0  0  0  0  0  0  0  0
    1.1335   -8.7367    0.0000 C   0  0  0  0  0  0  0  0  0  0  0  0
    0.8878  -10.2164    0.0000 N   0  0  0  0  0  0  0  0  0  0  0  0
   -1.4295   -8.3111    0.0000 C   0  0  0  0  0  0  0  0  0  0  0  0
   -1.6752   -9.7908    0.0000 N   0  0  0  0  0  0  0  0  0  0  0  0
   -3.0795  -10.3179    0.0000 C   0  0  0  0  0  0  0  0  0  0  0  0
   -3.3253  -11.7976    0.0000 N   0  0  0  0  0  0  0  0  0  0  0  0
   -4.7296  -12.3247    0.0000 S   0  0  0  0  0  0  0  0  0  0  0  0
   -4.9754  -13.8044    0.0000 C   0  0  0  0  0  3  0  0  0  0  0  0
   -6.3797  -14.3315    0.0000 C   0  0  0  0  0  0  0  0  0  0  0  0
   -6.6254  -15.8112    0.0000 O   0  0  0  0  0  0  0  0  0  0  0  0
   -8.0298  -16.3383    0.0000 S   0  0  0  0  0  0  0  0  0  0  0  0
   -8.2014  -14.8481    0.0000 N   0  0  0  0  0  0  0  0  0  0  0  0
   -7.5027  -17.7426    0.0000 C   0  0  0  0  0  3  0  0  0  0  0  0
   -8.9071  -18.2697    0.0000 C   0  0  0  0  0  0  0  0  0  0  0  0
   -9.4341  -16.8653    0.0000 C   0  0  0  0  0  0  0  0  0  0  0  0
  -10.7999  -16.2450    0.0000 N   0  0  0  0  0  0  0  0  0  0  0  0
  -11.1007  -14.7755    0.0000 N   0  0  0  0  0  0  0  0  0  0  0  0
  -12.5913  -14.6075    0.0000 O   0  0  0  0  0  0  0  0  0  0  0  0
  -13.2116  -15.9733    0.0000 C   0  0  0  0  0  0  0  0  0  0  0  0
  -12.1045  -16.9853    0.0000 C   0  0  0  0  0  0  0  0  0  0  0  0
  -10.8095  -17.7613    0.0000 C   0  0  0  0  0  0  0  0  0  0  0  0
   -9.5894  -16.8887    0.0000 C   0  0  0  0  0  0  0  0  0  0  0  0
   -9.7350  -15.3958    0.0000 C   0  0  0  0  0  0  0  0  0  0  0  0
   -8.5149  -14.5233    0.0000 C   0  0  0  0  0  0  0  0  0  0  0  0
   -8.6606  -13.0303    0.0000 N   0  0  0  0  0  0  0  0  0  0  0  0
   -7.4405  -12.1578    0.0000 C   0  0  0  0  0  3  0  0  0  0  0  0
   -7.5861  -10.6649    0.0000 C   0  0  0  0  0  2  0  0  0  0  0  0
  -10.6638  -19.2542    0.0000 N   0  0  0  0  0  0  0  0  0  0  0  0
  -11.8839  -20.1268    0.0000 C   0  0  0  0  0  2  0  0  0  0  0  0
  1  2  1  0
  2  3  2  0
  3  4  1  0
  4  5  1  0
  4  6  2  0
  6  7  1  0
  7  8  2  0
  8  9  1  0
  9 10  1  0
 10 11  2  0
 11 12  1  0
 12 13  1  0
 14 13  1  6
 14 15  1  0
 15 16  1  0
 16 17  1  0
 17 18  1  0
 18 19  1  0
 19 20  1  0
 20 21  1  0
 21 22  1  0
 21 23  1  0
 14 24  1  0
 24 25  1  6
 24 26  1  0
 26 27  1  0
 27 28  1  0
 28 29  1  0
 29 30  1  0
 30 31  1  0
 31 32  1  0
 32 33  1  0
 33 34  1  0
 34 35  1  0
 35 36  1  0
 36 37  1  0
 37 38  1  0
 38 39  1  0
 39 40  1  0
 40 41  2  0
 41 42  1  0
 42 43  1  0
 43 44  1  1
 44 45  1  0
 36 46  1  6
 46 47  1  0
 47 48  1  0
 47 49  1  0
 49 50  1  0
 50 51  1  0
 49 52  1  0
 52 53  2  3
 53 54  1  0
 54 55  2  3
 55 56  1  0
 56 57  1  0
 57 58  1  0
 58 59  1  0
 59 60  1  0
 60 61  1  0
 60 62  1  0
 62 63  1  0
 63 64  2  0
 64 65  1  0
 65 66  1  0
 66 67  1  0
 67 68  1  0
 68 69  2  0
 69 70  1  0
 70 71  1  0
 71 72  2  0
 72 73  1  0
 73 74  1  0
 74 75  1  0
 75 76  1  0
 70 77  1  0
 77 78  1  0
  8  2  1  0
 11  7  1  0
 26 16  1  0
 20 18  1  0
 30 26  1  0
 32 28  1  0
 41 35  1  0
 43 39  1  0
 64 60  1  0
 69 65  1  0
 72 66  1  0
M  RAD  8  12   2  27   2  33   2  37   2  44   2  57   2  62   2  75   2
M  RAD  2  76   3  78   3
M  END
$$$$
