
     RDKit          3D

 12 11  0  0  0  0  0  0  0  0999 V2000
    3.3895   -0.2615    0.5088 C   0  0  0  0  0  0  0  0  0  0  0  0
    2.6967    0.4165    1.4128 C   0  0  0  0  0  0  0  0  0  0  0  0
    2.9534    0.1939    2.8403 C   0  0  0  0  0  0  0  0  0  0  0  0
    1.6727    1.3892    0.9497 C   0  0  0  0  0  3  0  0  0  0  0  0
    0.9419    0.8662   -0.2645 C   0  0  0  0  0  0  0  0  0  0  0  0
    0.2304   -0.4389    0.0194 C   0  0  0  0  0  0  0  0  0  0  0  0
   -0.4586   -0.8568   -1.2639 C   0  0  0  0  0  3  0  0  0  0  0  0
    0.5045   -1.0566   -2.3981 C   0  0  0  0  0  0  0  0  0  0  0  0
   -1.5021    0.2016   -1.5579 C   0  0  0  0  0  0  0  0  0  0  0  0
   -2.4525    0.2181   -0.3803 C   0  0  0  0  0  0  0  0  0  0  0  0
   -3.5484    1.2426   -0.5562 C   0  0  0  0  0  0  0  0  0  0  0  0
   -4.4274    1.1551    0.6899 C   0  0  0  0  0  2  0  0  0  0  0  0
  1  2  2  0
  2  3  1  0
  2  4  1  0
  4  5  1  0
  5  6  1  0
  6  7  1  0
  7  8  1  0
  7  9  1  0
  9 10  1  0
 10 11  1  0
 11 12  1  0
M  RAD  3   4   2   7   2  12   3
M  END
$$$$
