
     RDKit          2D

 66 65  0  0  0  0  0  0  0  0999 V2000
    0.0000    0.0000    0.0000 C   0  0  0  0  0  0  0  0  0  0  0  0
    1.2990    0.7500    0.0000 O   0  0  0  0  0  0  0  0  0  0  0  0
    2.5981   -0.0000    0.0000 C   0  0  0  0  0  3  0  0  0  0  0  0
    3.8971    0.7500    0.0000 O   0  0  0  0  0  0  0  0  0  0  0  0
    5.1962   -0.0000    0.0000 C   0  0  0  0  0  0  0  0  0  0  0  0
    6.4952    0.7500    0.0000 C   0  0  0  0  0  0  0  0  0  0  0  0
    5.1962   -1.5000    0.0000 C   0  0  0  0  0  3  0  0  0  0  0  0
    6.4952   -2.2500    0.0000 C   0  0  0  0  0  3  0  0  0  0  0  0
    6.4952   -3.7500    0.0000 O   0  0  0  0  0  0  0  0  0  0  0  0
    7.7942   -4.5000    0.0000 C   0  0  0  0  0  3  0  0  0  0  0  0
    7.7942   -6.0000    0.0000 C   0  0  0  0  0  0  0  0  0  0  0  0
    9.0933   -6.7500    0.0000 C   0  0  0  0  0  0  0  0  0  0  0  0
    9.0933   -8.2500    0.0000 C   0  0  0  0  0  0  0  0  0  0  0  0
   10.3923   -9.0000    0.0000 O   0  0  0  0  0  0  0  0  0  0  0  0
   10.3923  -10.5000    0.0000 C   0  0  0  0  0  3  0  0  0  0  0  0
   11.6913  -11.2500    0.0000 C   0  0  0  0  0  0  0  0  0  0  0  0
   10.3923   -6.0000    0.0000 C   0  0  0  0  0  0  0  0  0  0  0  0
   11.6913   -6.7500    0.0000 O   0  0  0  0  0  0  0  0  0  0  0  0
   12.9904   -6.0000    0.0000 C   0  0  0  0  0  0  0  0  0  0  0  0
   14.2894   -6.7500    0.0000 C   0  0  0  0  0  2  0  0  0  0  0  0
   12.9904   -4.5000    0.0000 C   0  0  0  0  0  0  0  0  0  0  0  0
   14.2894   -3.7500    0.0000 O   0  0  0  0  0  0  0  0  0  0  0  0
   14.2894   -2.2500    0.0000 O   0  0  0  0  0  0  0  0  0  0  0  0
   15.5885   -1.5000    0.0000 C   0  0  0  0  0  0  0  0  0  0  0  0
   15.5885    0.0000    0.0000 C   0  0  0  0  0  0  0  0  0  0  0  0
   16.8875    0.7500    0.0000 O   0  0  0  0  0  0  0  0  0  0  0  0
   16.8875    2.2500    0.0000 C   0  0  0  0  0  3  0  0  0  0  0  0
   18.1865    3.0000    0.0000 O   0  0  0  0  0  0  0  0  0  0  0  0
   18.1865    4.5000    0.0000 C   0  0  0  0  0  0  0  0  0  0  0  0
   19.4856    5.2500    0.0000 O   0  0  0  0  0  0  0  0  0  0  0  0
   19.4856    6.7500    0.0000 C   0  0  0  0  0  3  0  0  0  0  0  0
   20.7846    7.5000    0.0000 C   0  0  0  0  0  0  0  0  0  0  0  0
   20.7846    9.0000    0.0000 O   0  0  0  0  0  0  0  0  0  0  0  0
   16.8875   -2.2500    0.0000 C   0  0  0  0  0  0  0  0  0  0  0  0
   18.1865   -1.5000    0.0000 C   0  0  0  0  0  2  0  0  0  0  0  0
   16.8875   -3.7500    0.0000 O   0  0  0  0  0  0  0  0  0  0  0  0
   18.1865   -4.5000    0.0000 C   0  0  0  0  0  0  0  0  0  0  0  0
   18.1865   -6.0000    0.0000 C   0  0  0  0  0  0  0  0  0  0  0  0
   19.4856   -3.7500    0.0000 C   0  0  0  0  0  3  0  0  0  0  0  0
   20.7846   -4.5000    0.0000 C   0  0  0  0  0  3  0  0  0  0  0  0
   22.0836   -3.7500    0.0000 C   0  0  0  0  0  0  0  0  0  0  0  0
   23.3827   -4.5000    0.0000 O   0  0  0  0  0  0  0  0  0  0  0  0
   24.6817   -3.7500    0.0000 C   0  0  0  0  0  0  0  0  0  0  0  0
   25.9808   -4.5000    0.0000 C   0  0  0  0  0  0  0  0  0  0  0  0
   27.2798   -3.7500    0.0000 O   0  0  0  0  0  0  0  0  0  0  0  0
   28.5788   -4.5000    0.0000 C   0  0  0  0  0  3  0  0  0  0  0  0
   29.8779   -3.7500    0.0000 C   0  0  0  0  0  0  0  0  0  0  0  0
   31.1769   -4.5000    0.0000 C   0  0  0  0  0  0  0  0  0  0  0  0
   32.4760   -3.7500    0.0000 C   0  0  0  0  0  0  0  0  0  0  0  0
   33.7750   -4.5000    0.0000 C   0  0  0  0  0  2  0  0  0  0  0  0
   22.0836   -2.2500    0.0000 O   0  0  0  0  0  0  0  0  0  0  0  0
   23.3827   -1.5000    0.0000 O   0  0  0  0  0  0  0  0  0  0  0  0
   23.3827    0.0000    0.0000 C   0  0  0  0  0  0  0  0  0  0  0  0
   24.6817    0.7500    0.0000 C   0  0  0  0  0  0  0  0  0  0  0  0
   25.9808    0.0000    0.0000 O   0  0  0  0  0  0  0  0  0  0  0  0
   24.6817    2.2500    0.0000 C   0  0  0  0  0  3  0  0  0  0  0  0
   25.9808    3.0000    0.0000 O   0  0  0  0  0  0  0  0  0  0  0  0
   22.0836    0.7500    0.0000 C   0  0  0  0  0  0  0  0  0  0  0  0
   22.0836    2.2500    0.0000 O   0  0  0  0  0  0  0  0  0  0  0  0
   23.3827    3.0000    0.0000 C   0  0  0  0  0  0  0  0  0  0  0  0
   20.7846    0.0000    0.0000 O   0  0  0  0  0  0  0  0  0  0  0  0
   19.4856    0.7500    0.0000 C   0  0  0  0  0  0  0  0  0  0  0  0
   19.4856    2.2500    0.0000 C   0  0  0  0  0  0  0  0  0  0  0  0
   20.7846    3.0000    0.0000 C   0  0  0  0  0  3  0  0  0  0  0  0
   20.7846    4.5000    0.0000 C   0  0  0  0  0  0  0  0  0  0  0  0
   22.0836    5.2500    0.0000 O   0  0  0  0  0  0  0  0  0  0  0  0
  1  2  1  0
  2  3  1  0
  3  4  1  0
  4  5  1  0
  5  6  1  6
  5  7  1  0
  7  8  1  0
  8  9  1  0
  9 10  1  0
 10 11  1  0
 12 11  1  6
 12 13  1  0
 13 14  1  0
 14 15  1  0
 15 16  1  0
 12 17  1  0
 17 18  1  0
 18 19  1  0
 19 20  1  6
 19 21  1  0
 21 22  1  0
 22 23  1  0
 23 24  1  0
 24 25  1  1
 25 26  1  0
 26 27  1  0
 27 28  1  0
 28 29  1  0
 29 30  1  0
 30 31  1  0
 31 32  1  0
 32 33  1  0
 24 34  1  0
 34 35  1  0
 34 36  1  0
 36 37  1  0
 37 38  1  6
 37 39  1  0
 39 40  1  0
 41 40  1  1
 41 42  1  0
 42 43  1  0
 43 44  1  0
 44 45  1  0
 45 46  1  0
 46 47  1  0
 47 48  1  0
 48 49  1  0
 49 50  1  0
 41 51  1  0
 51 52  1  0
 53 52  1  6
 53 54  1  0
 54 55  1  6
 54 56  1  0
 56 57  1  0
 53 58  1  0
 58 59  1  1
 59 60  1  0
 58 61  1  0
 61 62  1  0
 62 63  1  0
 63 64  1  0
 64 65  1  0
 65 66  1  0
M  RAD  8   3   2   7   2   8   2  10   2  15   2  20   3  27   2  31   2
M  RAD  7  35   3  39   2  40   2  46   2  50   3  56   2  64   2
M  END
$$$$
