
     RDKit          3D

 52 59  0  0  0  0  0  0  0  0999 V2000
    0.9827    7.1458   -0.4620 C   0  0  0  0  0  0  0  0  0  0  0  0
    2.0429    6.3447   -1.1979 C   0  0  0  0  0  0  0  0  0  0  0  0
    3.3892    6.5266   -0.5042 C   0  0  0  0  0  0  0  0  0  0  0  0
    1.6707    4.8939   -1.2837 C   0  0  0  0  0  0  0  0  0  0  0  0
    1.5154    4.2975    0.1188 C   0  0  0  0  0  0  0  0  0  0  0  0
    1.1408    2.8424    0.0409 C   0  0  0  0  0  0  0  0  0  0  0  0
    2.2414    2.1142   -0.7003 C   0  0  1  0  0  0  0  0  0  0  0  0
    3.5724    2.2455    0.0047 C   0  0  0  0  0  0  0  0  0  0  0  0
    1.8890    0.7089   -1.0309 C   0  0  0  0  0  3  0  0  0  0  0  0
    1.5955   -0.1383    0.1809 C   0  0  0  0  0  0  0  0  0  0  0  0
    2.7735   -0.2129    1.1266 C   0  0  0  0  0  0  0  0  0  0  0  0
    2.6162   -1.4567    1.9540 C   0  0  1  0  0  0  0  0  0  0  0  0
    2.8350   -1.1828    3.4299 C   0  0  0  0  0  0  0  0  0  0  0  0
    1.1763   -1.9535    1.8495 C   0  0  0  0  0  0  0  0  0  0  0  0
    3.4776   -2.5801    1.5444 C   0  0  0  0  0  0  0  0  0  0  0  0
    4.4697   -2.9674    2.3343 C   0  0  0  0  0  0  0  0  0  0  0  0
    5.4167   -4.0532    2.0925 C   0  0  0  0  0  0  0  0  0  0  0  0
    5.8326   -4.2509    0.6713 C   0  0  0  0  0  0  0  0  0  0  0  0
    7.3650   -4.3057    0.6056 C   0  0  0  0  0  0  0  0  0  0  0  0
    7.7765   -5.0636   -0.4772 O   0  0  0  0  0  0  0  0  0  0  0  0
    7.3849   -2.7938    0.3542 C   0  0  0  0  0  0  0  0  0  0  0  0
    5.9362   -2.9524   -0.1057 C   0  0  0  0  0  0  0  0  0  0  0  0
    5.8915   -3.2234   -1.5958 C   0  0  0  0  0  0  0  0  0  0  0  0
    4.6746   -3.7398   -2.0153 O   0  0  0  0  0  0  0  0  0  0  0  0
    4.2049   -1.6901   -2.7207 S   0  0  0  0  0  0  0  0  0  0  0  0
    4.1733   -0.7913   -2.2008 C   0  0  0  0  0  0  0  0  0  0  0  0
    2.9473   -1.6986   -1.7285 C   0  0  0  0  0  0  0  0  0  0  0  0
    2.2031   -1.9413   -0.7465 S   0  0  0  0  0  0  0  0  0  0  0  0
    1.2654   -2.8983    0.1211 S   0  0  0  0  0  0  0  0  0  0  0  0
    0.7565   -4.4692    0.3209 C   0  0  0  0  0  0  0  0  0  0  0  0
   -0.2821   -3.5995   -0.3035 C   0  0  0  0  0  0  0  0  0  0  0  0
   -1.7679   -3.1254    0.5705 S   0  0  0  0  0  0  0  0  0  0  0  0
   -2.0947   -1.4751    0.2262 O   0  0  0  0  0  0  0  0  0  0  0  0
   -1.9293   -0.7309    1.3924 C   0  0  0  0  0  0  0  0  0  0  0  0
   -2.2300    0.7170    1.0377 C   0  0  0  0  0  0  0  0  0  0  0  0
   -3.6705    0.8262    0.5213 C   0  0  0  0  0  0  0  0  0  0  0  0
   -3.8845    2.2861    0.1943 C   0  0  0  0  0  0  0  0  0  0  0  0
   -3.8771   -0.0885   -0.6345 C   0  0  0  0  0  0  0  0  0  0  0  0
   -4.6034    0.4823   -1.7995 C   0  0  0  0  0  0  0  0  0  0  0  0
   -4.3053    1.9086   -2.1141 C   0  0  0  0  0  0  0  0  0  0  0  0
   -5.2193    3.1010   -1.7561 S   0  0  0  0  0  0  0  0  0  0  0  0
   -7.2380    2.2886   -2.9206 C   0  0  0  0  0  0  0  0  0  0  0  0
   -5.9005    3.6835   -0.5773 S   0  0  0  0  0  0  0  0  0  0  0  0
   -5.5379    3.4408    1.1887 C   0  0  1  0  0  0  0  0  0  0  0  0
   -6.4493    2.5456    1.7446 O   0  0  0  0  0  0  0  0  0  0  0  0
   -7.3132    2.1237    0.7668 C   0  0  0  0  0  0  0  0  0  0  0  0
   -7.8732    0.7761    1.1759 C   0  0  0  0  0  0  0  0  0  0  0  0
   -7.6794   -0.0541   -0.4624 C   0  0  0  0  0  0  0  0  0  0  0  0
   -7.0213   -0.6036    0.9770 S   0  0  0  0  0  0  0  0  0  0  0  0
   -5.4503   -0.6590    1.2248 C   0  0  0  0  0  0  0  0  0  0  0  0
   -4.6220    0.4772    1.6433 C   0  0  0  0  0  3  0  0  0  0  0  0
   -4.2677    2.9233    1.3750 O   0  0  0  0  0  0  0  0  0  0  0  0
  1  2  1  0
  2  3  1  0
  2  4  1  0
  4  5  1  0
  5  6  1  0
  6  7  1  0
  7  8  1  1
  7  9  1  0
  9 10  1  0
 10 11  1  0
 11 12  1  0
 12 13  1  1
 12 14  1  0
 12 15  1  0
 15 16  2  3
 16 17  1  0
 17 18  1  0
 18 19  1  0
 19 20  1  0
 19 21  1  0
 21 22  1  0
 22 23  1  0
 23 24  1  0
 24 25  1  0
 25 26  1  0
 26 27  1  0
 27 28  1  0
 28 29  1  0
 29 30  1  0
 30 31  1  0
 31 32  1  0
 32 33  1  0
 33 34  1  0
 34 35  1  0
 35 36  1  0
 36 37  1  0
 36 38  1  0
 38 39  1  0
 39 40  1  0
 40 41  1  0
 41 42  1  0
 41 43  1  0
 43 44  1  0
 44 45  1  6
 45 46  1  0
 46 47  1  0
 47 48  1  0
 47 49  1  0
 49 50  2  3
 50 51  1  0
 44 52  1  0
 28 10  1  0
 29 14  1  0
 22 18  1  0
 27 25  1  0
 31 29  1  0
 51 36  1  0
 52 37  1  0
 49 48  1  0
M  RAD  2   9   2  51   2
M  END
$$$$
