
     RDKit          3D

 13 13  0  0  0  0  0  0  0  0999 V2000
    0.8620   -0.9457    0.9517 O   0  0  0  0  0  0  0  0  0  0  0  0
   -0.2566   -0.5580    0.7001 N   0  0  0  0  0  3  0  0  0  0  0  0
   -1.5446   -1.2220    0.7360 C   0  0  0  0  0  0  0  0  0  0  0  0
   -2.2280   -1.2645   -0.4749 C   0  0  0  0  0  0  0  0  0  0  0  0
   -3.8885   -2.1792   -0.2287 Br  0  0  0  0  0  0  0  0  0  0  0  0
   -0.2334    0.4695   -0.2798 N   0  0  0  0  0  0  0  0  0  0  0  0
   -0.0745    1.6738    0.4136 N   0  0  0  0  0  0  0  0  0  0  0  0
   -0.4284    2.8008   -0.4393 C   0  0  0  0  0  0  0  0  0  0  0  0
   -1.3149    3.9015    0.6889 Cl  0  0  0  0  0  0  0  0  0  0  0  0
    0.8859    0.1174   -0.8994 O   0  0  0  0  0  0  0  0  0  0  0  0
    1.6710   -0.2331    0.1646 C   0  0  0  0  0  0  0  0  0  0  0  0
    2.8139   -0.9820   -0.2311 N   0  0  0  0  0  4  0  0  0  0  0  0
    3.7361   -1.5784   -0.5690 N   0  0  0  0  0  0  0  0  0  0  0  0
  1  2  1  0
  2  3  1  0
  3  4  2  3
  4  5  1  0
  2  6  1  0
  6  7  1  0
  7  8  1  0
  8  9  1  0
  6 10  1  0
 10 11  1  0
 11 12  1  0
 12 13  3  0
 11  1  1  0
M  CHG  2   2   1  12   1
M  RAD  1   2   2
M  END
$$$$
