
     RDKit          3D

 18 18  0  0  0  0  0  0  0  0999 V2000
    0.6785    1.2400   -0.7481 C   0  0  0  0  0  0  0  0  0  0  0  0
    1.9571    1.2508   -1.5352 C   0  0  0  0  0  0  0  0  0  0  0  0
    3.0681    1.9907   -0.8008 C   0  0  0  0  0  0  0  0  0  0  0  0
    4.2506    1.0580   -0.5484 C   0  0  0  0  0  0  0  0  0  0  0  0
    3.8444   -0.1428    0.2698 C   0  0  0  0  0  0  0  0  0  0  0  0
    3.0756    0.2983    1.5190 C   0  0  0  0  0  0  0  0  0  0  0  0
    1.6645   -0.0828    1.2907 C   0  0  0  0  0  0  0  0  0  0  0  0
    1.1825   -1.0267    2.1750 O   0  0  0  0  0  0  0  0  0  0  0  0
    0.7549    0.2877    0.4149 C   0  0  0  0  0  0  0  0  0  0  0  0
   -0.4996   -0.4063    0.6298 C   0  0  0  0  0  0  0  0  0  0  0  0
   -0.5871   -1.3376    1.6863 O   0  0  0  0  0  0  0  0  0  0  0  0
   -1.5765   -0.2354   -0.0902 C   0  0  0  0  0  0  0  0  0  0  0  0
   -2.7881   -0.9643    0.1865 C   0  0  0  0  0  0  0  0  0  0  0  0
   -2.7977   -1.7786    1.1424 O   0  0  0  0  0  0  0  0  0  0  0  0
   -4.0402   -0.8217   -0.5844 C   0  0  0  0  0  0  0  0  0  0  0  0
   -4.0869   -1.7219   -1.6467 F   0  0  0  0  0  0  0  0  0  0  0  0
   -1.5660    0.7205   -1.2125 C   0  0  0  0  0  0  0  0  0  0  0  0
   -2.5341    1.6723   -0.9474 F   0  0  0  0  0  0  0  0  0  0  0  0
  1  2  1  0
  2  3  1  0
  3  4  1  0
  4  5  1  0
  5  6  1  0
  6  7  1  0
  7  8  1  0
  7  9  2  3
  9 10  1  0
 10 11  1  0
 10 12  2  3
 12 13  1  0
 13 14  2  0
 13 15  1  0
 15 16  1  0
 12 17  1  0
 17 18  1  0
  9  1  1  0
M  END
$$$$
