
     RDKit          3D

  3  2  0  0  0  0  0  0  0  0999 V2000
    1.2627   -0.2044    0.0000 C   0  0  0  0  0  0  0  0  0  0  0  0
   -0.0675    0.4456   -0.0000 C   0  0  0  0  0  0  0  0  0  0  0  0
   -1.1952   -0.2411   -0.0000 C   0  0  0  0  0  0  0  0  0  0  0  0
  1  2  1  0
  2  3  2  0
M  END
$$$$
