
     RDKit          3D

 12 12  0  0  0  0  0  0  0  0999 V2000
   -2.3976    1.7606   -0.6963 O   0  0  0  0  0  0  0  0  0  0  0  0
   -1.1001    1.2839   -0.8536 C   0  0  0  0  0  0  0  0  0  0  0  0
   -0.5002    1.0469    0.5165 C   0  0  1  0  0  0  0  0  0  0  0  0
   -1.2958    0.0694    1.2424 N   0  0  0  0  0  0  0  0  0  0  0  0
   -1.3524   -1.2009    0.5389 C   0  0  2  0  0  0  0  0  0  0  0  0
   -0.8297   -2.2628    1.4903 C   0  0  0  0  0  0  0  0  0  0  0  0
   -0.4977   -1.1371   -0.5409 O   0  0  0  0  0  0  0  0  0  0  0  0
    0.7908   -0.9341   -0.0618 C   0  0  1  0  0  0  0  0  0  0  0  0
    1.7028   -1.1760   -1.0891 O   0  0  0  0  0  0  0  0  0  0  0  0
    0.8950    0.5123    0.4098 C   0  0  1  0  0  0  0  0  0  0  0  0
    1.6932    1.2675   -0.4464 O   0  0  0  0  0  0  0  0  0  0  0  0
    2.8917    0.7705   -0.5097 O   0  0  0  0  0  0  0  0  0  0  0  0
  1  2  1  0
  3  2  1  6
  3  4  1  0
  4  5  1  0
  5  6  1  1
  5  7  1  0
  7  8  1  0
  8  9  1  6
  8 10  1  0
 10 11  1  6
 11 12  1  0
 10  3  1  0
M  END
$$$$
