
     RDKit          3D

 61 60  0  0  0  0  0  0  0  0999 V2000
   12.3410   -0.1938   -5.1239 C   0  0  0  0  0  0  0  0  0  0  0  0
   12.2836    0.4897   -3.7939 C   0  0  0  0  0  0  0  0  0  0  0  0
   13.6390    0.7599   -3.2078 C   0  0  0  0  0  0  0  0  0  0  0  0
   11.4375   -0.2730   -2.8146 C   0  0  0  0  0  0  0  0  0  0  0  0
   11.4103    0.4591   -1.4846 C   0  0  0  0  0  0  0  0  0  0  0  0
   12.8176    0.5565   -0.9847 C   0  0  0  0  0  0  0  0  0  0  0  0
   12.9422    1.2537    0.3175 C   0  0  1  0  0  0  0  0  0  0  0  0
   12.4596    2.6647    0.3527 C   0  0  0  0  0  0  0  0  0  0  0  0
   12.5911    0.4243    1.4957 C   0  0  0  0  0  3  0  0  0  0  0  0
   12.7094    1.1850    2.7782 C   0  0  0  0  0  0  0  0  0  0  0  0
   11.7198    2.3196    2.7755 C   0  0  0  0  0  0  0  0  0  0  0  0
   10.3349    1.7916    2.6769 C   0  0  1  0  0  0  0  0  0  0  0  0
    9.2840    2.8670    2.6640 C   0  0  0  0  0  0  0  0  0  0  0  0
   10.1184    0.6779    1.7208 C   0  0  0  0  0  3  0  0  0  0  0  0
    8.6558    0.2507    1.7472 C   0  0  0  0  0  0  0  0  0  0  0  0
    8.2531   -0.2141    3.1262 C   0  0  0  0  0  0  0  0  0  0  0  0
    9.0217   -1.3378    3.5915 N   0  0  0  0  0  1  0  0  0  0  0  0
    6.7859   -0.5742    3.1064 C   0  0  0  0  0  3  0  0  0  0  0  0
    5.9074    0.5745    2.7266 C   0  0  0  0  0  0  0  0  0  0  0  0
    6.1930    1.1091    1.3691 C   0  0  0  0  0  0  0  0  0  0  0  0
    5.2353    1.0942    0.4670 C   0  0  0  0  0  0  0  0  0  0  0  0
    5.4906    1.6184   -0.8893 C   0  0  0  0  0  0  0  0  0  0  0  0
    3.9021    0.5590    0.8058 C   0  0  1  0  0  0  0  0  0  0  0  0
    2.6868    1.8966    0.5949 S   0  0  0  0  0  0  0  0  0  0  0  0
    3.5479   -0.5662    0.0769 O   0  0  0  0  0  0  0  0  0  0  0  0
    2.2828   -0.9429    0.5249 C   0  0  0  0  0  3  0  0  0  0  0  0
    1.6685   -1.8382   -0.5249 C   0  0  0  0  0  0  0  0  0  0  0  0
    0.2951   -2.2990   -0.0748 C   0  0  1  0  0  0  0  0  0  0  0  0
    0.3795   -3.0752    1.2244 C   0  0  0  0  0  2  0  0  0  0  0  0
   -0.6024   -1.1231    0.0722 C   0  0  0  0  0  3  0  0  0  0  0  0
   -0.1638   -0.0812    1.0407 C   0  0  0  0  0  0  0  0  0  0  0  0
   -0.9172   -0.4958   -1.2595 C   0  0  0  0  0  0  0  0  0  0  0  0
   -1.6084   -1.5040   -2.1599 C   0  0  0  0  0  2  0  0  0  0  0  0
    0.3236   -0.0301   -1.9889 C   0  0  0  0  0  2  0  0  0  0  0  0
   -1.8386    0.6949   -0.9616 C   0  0  0  0  0  3  0  0  0  0  0  0
   -3.0486    0.1112   -0.2654 C   0  0  0  0  0  0  0  0  0  0  0  0
   -3.9675   -0.2139   -1.3067 O   0  0  0  0  0  0  0  0  0  0  0  0
   -4.1962    1.0441   -1.9152 C   0  0  0  0  0  0  0  0  0  0  0  0
   -5.0977    0.8188   -3.1467 C   0  0  0  0  0  2  0  0  0  0  0  0
   -4.8422    1.9582   -0.9598 C   0  0  0  0  0  0  0  0  0  0  0  0
   -6.1493    1.7243   -0.4034 C   0  0  1  0  0  0  0  0  0  0  0  0
   -7.1771    1.6707   -1.5594 C   0  0  0  0  0  0  0  0  0  0  0  0
   -8.5681    1.4241   -1.0051 C   0  0  0  0  0  2  0  0  0  0  0  0
   -6.3606    0.6696    0.5624 C   0  0  0  0  0  0  0  0  0  0  0  0
   -6.1279   -0.7440    0.2185 C   0  0  0  0  0  0  0  0  0  0  0  0
   -6.3910   -1.6987    1.3388 C   0  0  0  0  0  0  0  0  0  0  0  0
   -6.1247   -2.9967    0.8518 O   0  0  0  0  0  0  0  0  0  0  0  0
   -7.8389   -1.6069    1.7358 C   0  0  1  0  0  0  0  0  0  0  0  0
   -8.6765   -1.9694    0.5289 C   0  0  1  0  0  0  0  0  0  0  0  0
   -8.3030   -3.3816    0.1329 C   0  0  0  0  0  0  0  0  0  0  0  0
  -10.1507   -1.8418    0.8494 C   0  0  0  0  0  0  0  0  0  0  0  0
  -10.9342   -2.2160   -0.3859 C   0  0  0  0  0  3  0  0  0  0  0  0
  -12.4305   -2.1092   -0.1397 C   0  0  0  0  0  0  0  0  0  0  0  0
  -12.8830   -3.0139    0.9719 C   0  0  0  0  0  2  0  0  0  0  0  0
  -12.8181   -0.6724    0.1101 C   0  0  0  0  0  0  0  0  0  0  0  0
  -12.4363    0.1304   -1.1245 C   0  0  0  0  0  0  0  0  0  0  0  0
  -12.7810    1.5825   -0.9825 C   0  0  0  0  0  0  0  0  0  0  0  0
  -14.2868    1.6777   -0.7694 C   0  0  0  0  0  3  0  0  0  0  0  0
  -15.0550    1.8246   -2.3966 S   0  0  0  0  0  0  0  0  0  0  0  0
  -16.7912    1.9382   -2.2184 N   0  0  0  0  0  1  0  0  0  0  0  0
   -8.1512   -2.8078    3.0544 S   0  0  0  0  0  0  0  0  0  0  0  0
  1  2  1  0
  2  3  1  0
  2  4  1  0
  4  5  1  0
  5  6  1  0
  6  7  1  0
  7  8  1  6
  7  9  1  0
  9 10  1  0
 10 11  1  0
 11 12  1  0
 12 13  1  6
 12 14  1  0
 14 15  1  0
 15 16  1  0
 16 17  1  0
 16 18  1  0
 18 19  1  0
 19 20  1  0
 20 21  2  3
 21 22  1  0
 21 23  1  0
 23 24  1  6
 23 25  1  0
 25 26  1  0
 26 27  1  0
 27 28  1  0
 28 29  1  1
 28 30  1  0
 30 31  1  0
 30 32  1  0
 32 33  1  0
 32 34  1  0
 32 35  1  0
 35 36  1  0
 36 37  1  0
 37 38  1  0
 38 39  1  0
 38 40  1  0
 41 40  1  6
 41 42  1  0
 42 43  1  0
 41 44  1  0
 44 45  1  0
 45 46  1  0
 46 47  1  0
 46 48  1  0
 48 49  1  0
 49 50  1  1
 49 51  1  0
 51 52  1  0
 52 53  1  0
 53 54  1  0
 53 55  1  0
 55 56  1  0
 56 57  1  0
 57 58  1  0
 58 59  1  0
 59 60  1  0
 48 61  1  1
M  RAD  8   9   2  14   2  17   2  18   2  26   2  29   3  30   2  33   3
M  RAD  8  34   3  35   2  39   3  43   3  52   2  54   3  58   2  60   2
M  CHG  2  17   1  60   1
M  END
$$$$
