
     RDKit          3D

 84 86  0  0  0  0  0  0  0  0999 V2000
  -16.1467   -1.2793    1.1729 C   0  0  0  0  0  0  0  0  0  0  0  0
  -14.6461   -1.4383    1.1375 C   0  0  0  0  0  0  0  0  0  0  0  0
  -14.3213   -2.5559    0.1648 C   0  0  0  0  0  0  0  0  0  0  0  0
  -14.0063   -0.1679    0.5913 C   0  0  0  0  0  0  0  0  0  0  0  0
  -12.5054   -0.3129    0.5452 C   0  0  0  0  0  0  0  0  0  0  0  0
  -12.0914   -1.4715   -0.3488 C   0  0  0  0  0  0  0  0  0  0  0  0
  -10.6017   -1.5883   -0.3702 C   0  0  1  0  0  0  0  0  0  0  0  0
  -10.2001   -2.7283   -1.2530 C   0  0  0  0  0  0  0  0  0  0  0  0
   -9.8712   -0.3095   -0.6312 C   0  0  1  0  0  0  0  0  0  0  0  0
   -8.3874   -0.6367   -0.6138 C   0  0  0  0  0  0  0  0  0  0  0  0
   -7.8453   -0.1956    0.7301 C   0  0  0  0  0  0  0  0  0  0  0  0
   -6.6952    0.7422    0.4525 C   0  0  2  0  0  0  0  0  0  0  0  0
   -5.7119    0.8179    1.5681 C   0  0  0  0  0  0  0  0  0  0  0  0
   -7.1399    2.0672   -0.0806 C   0  0  0  0  0  0  0  0  0  0  0  0
   -7.5454    3.0370    0.9828 C   0  0  0  0  0  0  0  0  0  0  0  0
   -9.0391    3.0905    1.0995 C   0  0  0  0  0  0  0  0  0  0  0  0
   -9.3873    3.0470    2.5823 C   0  0  0  0  0  0  0  0  0  0  0  0
   -9.7504    1.9415    0.4468 C   0  0  0  0  0  0  0  0  0  0  0  0
  -10.6056    2.3354   -0.6732 C   0  0  0  0  0  0  0  0  0  0  0  0
  -10.8690    1.6637   -1.7560 C   0  0  0  0  0  0  0  0  0  0  0  0
  -11.7057    2.1262   -2.7783 O   0  0  0  0  0  0  0  0  0  0  0  0
  -10.2612    0.3249   -1.9480 C   0  0  0  0  0  0  0  0  0  0  0  0
  -11.1919   -0.5075   -2.5850 O   0  0  0  0  0  0  0  0  0  0  0  0
   -9.0858    0.4671   -2.8455 C   0  0  0  0  0  0  0  0  0  0  0  0
   -8.7059   -0.5357   -3.6341 C   0  0  0  0  0  0  0  0  0  0  0  0
   -7.5386   -0.4384   -4.5445 C   0  0  0  0  0  0  0  0  0  0  0  0
   -6.5456    0.6025   -4.0479 C   0  0  0  0  0  2  0  0  0  0  0  0
   -5.2667    0.5151   -4.8288 C   0  0  0  0  0  0  0  0  0  0  0  0
   -4.3429    1.6298   -4.3867 C   0  0  0  0  0  0  0  0  0  0  0  0
   -4.3079    1.7884   -3.0050 O   0  0  0  0  0  0  0  0  0  0  0  0
   -3.5658    0.7461   -2.4505 C   0  0  0  0  0  0  0  0  0  0  0  0
   -4.1423   -0.6072   -2.8213 C   0  0  0  0  0  0  0  0  0  0  0  0
   -4.5366   -1.3116   -1.5232 C   0  0  0  0  0  3  0  0  0  0  0  0
   -5.4011   -2.5090   -1.7600 C   0  0  0  0  0  2  0  0  0  0  0  0
   -5.2977   -3.5325   -0.6567 C   0  0  0  0  0  0  0  0  0  0  0  0
   -5.1743   -2.9088    0.7149 C   0  0  1  0  0  0  0  0  0  0  0  0
   -6.4479   -3.2488    1.4870 C   0  0  0  0  0  0  0  0  0  0  0  0
   -4.0484   -3.6363    1.4299 C   0  0  0  0  0  0  0  0  0  0  0  0
   -2.9818   -2.6120    1.7623 C   0  0  0  0  0  0  0  0  0  0  0  0
   -2.9497   -2.2635    3.2175 C   0  0  0  0  0  0  0  0  0  0  0  0
   -1.7128   -1.7703    3.5584 O   0  0  0  0  0  0  0  0  0  0  0  0
   -3.9819   -1.1847    3.5291 C   0  0  0  0  0  0  0  0  0  0  0  0
   -3.2893    0.1541    3.7309 C   0  0  0  0  0  0  0  0  0  0  0  0
   -4.2866    1.2899    3.6772 C   0  0  0  0  0  0  0  0  0  0  0  0
   -3.9468    2.2810    2.5789 C   0  0  0  0  0  3  0  0  0  0  0  0
   -4.8997    2.0604    1.4436 C   0  0  1  0  0  0  0  0  0  0  0  0
   -4.3278    2.3132    0.0921 C   0  0  0  0  0  0  0  0  0  0  0  0
   -3.3486    0.9219   -0.6182 Si  0  0  0  0  0  3  0  0  0  0  0  0
   -1.5633    0.9697   -0.1087 C   0  0  0  0  0  0  0  0  0  0  0  0
   -1.2205   -0.1024    0.6973 O   0  0  0  0  0  0  0  0  0  0  0  0
   -0.7084    0.9290   -1.3488 C   0  0  0  0  0  0  0  0  0  0  0  0
   -0.9839   -0.3487   -2.1030 C   0  0  0  0  0  0  0  0  0  0  0  0
   -0.6285   -1.5501   -1.2571 C   0  0  0  0  0  0  0  0  0  0  0  0
    1.2134   -1.4268   -0.8727 Si  0  0  0  0  0  2  0  0  0  0  0  0
    1.6552    0.3669   -0.6544 C   0  0  0  0  0  0  0  0  0  0  0  0
    3.1109    0.6474   -0.7738 C   0  0  0  0  0  0  0  0  0  0  0  0
    3.8678   -0.1223    0.2647 C   0  0  0  0  0  0  0  0  0  0  0  0
    3.3687    0.2712    1.6556 C   0  0  0  0  0  0  0  0  0  0  0  0
    3.6272    1.7866    1.7442 C   0  0  0  0  0  0  0  0  0  0  0  0
    4.2906   -0.4093    2.6600 C   0  0  0  0  0  3  0  0  0  0  0  0
    5.7045    0.0942    2.5221 C   0  0  0  0  0  0  0  0  0  0  0  0
    6.2093   -0.2057    1.1507 C   0  0  0  0  0  0  0  0  0  0  0  0
    7.6307    0.3000    0.9471 C   0  0  0  0  0  0  0  0  0  0  0  0
    7.6963    1.8054    1.1378 C   0  0  0  0  0  0  0  0  0  0  0  0
    8.4949   -0.4140    1.9697 C   0  0  0  0  0  3  0  0  0  0  0  0
    9.9374    0.0600    1.8904 C   0  0  0  0  0  0  0  0  0  0  0  0
   10.0432    1.5295    2.1419 C   0  0  0  0  0  0  0  0  0  0  0  0
   11.4717    1.9707    2.0725 C   0  0  0  0  0  0  0  0  0  0  0  0
   12.0790    1.7224    0.8312 O   0  0  0  0  0  0  0  0  0  0  0  0
   12.2241    0.4426    0.2746 C   0  0  0  0  0  0  0  0  0  0  0  0
   13.3502   -0.5114    1.0121 S   0  0  0  0  0  0  0  0  0  0  0  0
   13.6631   -2.1954    0.4170 C   0  0  0  0  0  0  0  0  0  0  0  0
   15.0978   -2.5525    0.7585 C   0  0  0  0  0  0  0  0  0  0  0  0
   15.9897   -1.5379    0.0468 C   0  0  0  0  0  3  0  0  0  0  0  0
   15.7124   -1.6723   -1.4257 C   0  0  0  0  0  0  0  0  0  0  0  0
   16.4829   -0.7657   -2.2426 N   0  0  0  0  0  0  0  0  0  0  0  0
   17.8631   -1.1438   -2.1896 C   0  0  0  0  0  0  0  0  0  0  0  0
   18.4583   -0.9122   -0.8371 C   0  0  0  0  0  3  0  0  0  0  0  0
   19.0214    0.5055   -0.8319 C   0  0  0  0  0  0  0  0  0  0  0  0
   19.6544    0.8486    0.4941 C   0  0  0  0  0  0  0  0  0  0  0  0
   20.8006   -0.0841    0.8327 C   0  0  0  0  0  0  0  0  0  0  0  0
   21.7767   -0.0024   -0.1410 O   0  0  0  0  0  0  0  0  0  0  0  0
   22.3212    1.2510   -0.2960 C   0  0  0  0  0  0  0  0  0  0  0  0
   22.9463    1.6517    1.0258 C   0  0  0  0  0  0  0  0  0  0  0  0
  1  2  1  0
  2  3  1  0
  2  4  1  0
  4  5  1  0
  5  6  1  0
  6  7  1  0
  7  8  1  6
  7  9  1  0
  9 10  1  6
 10 11  1  0
 11 12  1  0
 12 13  1  1
 12 14  1  0
 14 15  1  0
 15 16  1  0
 16 17  1  0
 16 18  1  0
 18 19  1  0
 19 20  2  3
 20 21  1  0
 20 22  1  0
 22 23  1  0
 22 24  1  0
 24 25  2  3
 25 26  1  0
 26 27  1  0
 27 28  1  0
 28 29  1  0
 29 30  1  0
 30 31  1  0
 31 32  1  0
 32 33  1  0
 33 34  1  0
 34 35  1  0
 35 36  1  0
 36 37  1  1
 36 38  1  0
 38 39  1  0
 39 40  1  0
 40 41  1  0
 40 42  1  0
 42 43  1  0
 43 44  1  0
 44 45  1  0
 46 45  1  1
 46 47  1  0
 47 48  1  0
 48 49  1  0
 49 50  1  0
 49 51  1  0
 51 52  1  0
 52 53  1  0
 53 54  1  0
 54 55  1  0
 55 56  1  0
 56 57  1  0
 57 58  1  0
 58 59  1  0
 58 60  1  0
 60 61  1  0
 61 62  1  0
 62 63  1  0
 63 64  1  0
 63 65  1  0
 65 66  1  0
 66 67  1  0
 67 68  1  0
 68 69  1  0
 69 70  1  0
 70 71  2  3
 71 72  1  0
 72 73  1  0
 73 74  1  0
 74 75  1  0
 75 76  1  0
 76 77  1  0
 77 78  1  0
 78 79  1  0
 79 80  1  0
 80 81  1  0
 81 82  1  0
 82 83  1  0
 83 84  1  0
 22  9  1  0
 46 13  1  0
 48 31  1  0
M  RAD  8  27   3  33   2  34   3  45   2  48   2  54   3  60   2  65   2
M  RAD  2  74   2  78   2
M  END
$$$$
