
     RDKit          3D

 22 21  0  0  0  0  0  0  0  0999 V2000
   -5.0634   -0.9020   -0.3016 C   0  0  0  0  0  0  0  0  0  0  0  0
   -4.4732    0.0776    0.2268 N   0  0  0  0  0  0  0  0  0  0  0  0
   -4.2952    0.1356    1.6482 C   0  0  0  0  0  0  0  0  0  0  0  0
   -4.9767   -1.0378    2.2891 C   0  0  0  0  0  0  0  0  0  0  0  0
   -4.9014    1.4448    2.1404 C   0  0  0  0  0  0  0  0  0  0  0  0
   -2.9027    0.1559    1.9446 N   0  0  0  0  0  0  0  0  0  0  0  0
   -2.3389    1.3579    1.8997 O   0  0  0  0  0  0  0  0  0  0  0  0
   -2.1380   -0.9342    1.4796 C   0  0  0  0  0  0  0  0  0  0  0  0
   -2.1118   -1.1497    0.1343 O   0  0  0  0  0  0  0  0  0  0  0  0
   -1.6183   -0.1354   -0.6385 C   0  0  0  0  0  3  0  0  0  0  0  0
   -0.1365   -0.1016   -0.7892 C   0  0  0  0  0  0  0  0  0  0  0  0
    0.4830    0.0615    0.5866 C   0  0  0  0  0  0  0  0  0  0  0  0
    0.4256   -1.3391   -1.4530 C   0  0  0  0  0  2  0  0  0  0  0  0
    0.2496    1.1011   -1.6159 C   0  0  0  0  0  0  0  0  0  0  0  0
    1.7223    1.2351   -1.8310 C   0  0  0  0  0  0  0  0  0  0  0  0
    2.3152    0.0347   -2.5549 C   0  0  0  0  0  0  0  0  0  0  0  0
    3.8066    0.2900   -2.7119 C   0  0  0  0  0  0  0  0  0  0  0  0
    4.3660    0.4383   -1.3144 C   0  0  0  0  0  0  0  0  0  0  0  0
    4.1152   -0.8325   -0.5284 C   0  0  0  0  0  0  0  0  0  0  0  0
    4.6626   -0.7108    0.8657 C   0  0  0  0  0  0  0  0  0  0  0  0
    6.1159   -0.4674    0.7985 C   0  0  0  0  0  0  0  0  0  0  0  0
    6.6940   -0.3935   -0.2747 O   0  0  0  0  0  0  0  0  0  0  0  0
  1  2  2  0
  2  3  1  0
  3  4  1  0
  3  5  1  0
  3  6  1  0
  6  7  1  0
  6  8  1  0
  8  9  1  0
  9 10  1  0
 10 11  1  0
 11 12  1  0
 11 13  1  0
 11 14  1  0
 14 15  1  0
 15 16  1  0
 16 17  1  0
 17 18  1  0
 18 19  1  0
 19 20  1  0
 20 21  1  0
 21 22  2  0
M  RAD  2  10   2  13   3
M  END
$$$$
