
     RDKit          3D

 28 30  0  0  0  0  0  0  0  0999 V2000
    6.5773   -0.3899   -1.7015 C   0  0  0  0  0  0  0  0  0  0  0  0
    6.3299    0.6470   -0.6180 C   0  0  0  0  0  0  0  0  0  0  0  0
    6.7100    0.0081    0.6988 C   0  0  0  0  0  0  0  0  0  0  0  0
    4.8444    0.9375   -0.5713 C   0  0  0  0  0  0  0  0  0  0  0  0
    4.1064   -0.3432   -0.2537 C   0  0  0  0  0  0  0  0  0  0  0  0
    2.6266   -0.0280   -0.2126 C   0  0  0  0  0  0  0  0  0  0  0  0
    2.3705    0.9986    0.8474 C   0  0  1  0  0  0  0  0  0  0  0  0
    3.0964    2.2907    0.6297 C   0  0  0  0  0  0  0  0  0  0  0  0
    0.9255    1.1626    1.1966 C   0  0  1  0  0  0  0  0  0  0  0  0
    0.0674    1.5853    0.0399 C   0  0  0  0  0  0  0  0  0  0  0  0
   -0.7257    2.8281    0.3219 C   0  0  0  0  0  0  0  0  0  0  0  0
   -2.2090    2.6003    0.3498 C   0  0  1  0  0  0  0  0  0  0  0  0
   -2.9104    3.5447   -0.6022 C   0  0  0  0  0  0  0  0  0  0  0  0
   -2.6042    1.1679    0.1536 C   0  0  0  0  0  0  0  0  0  0  0  0
   -2.4725    0.7912   -1.3063 C   0  0  0  0  0  0  0  0  0  0  0  0
   -2.9922    1.8298   -2.1478 N   0  0  0  0  0  0  0  0  0  0  0  0
   -3.2877   -0.4770   -1.5865 C   0  0  0  0  0  0  0  0  0  0  0  0
   -3.3237   -1.3786   -0.3681 C   0  0  0  0  0  0  0  0  0  0  0  0
   -4.4842   -2.3518   -0.4615 C   0  0  0  0  0  0  0  0  0  0  0  0
   -5.3644   -2.1672   -1.6785 C   0  0  0  0  0  0  0  0  0  0  0  0
   -3.5181   -3.5095   -0.7117 C   0  0  0  0  0  0  0  0  0  0  0  0
   -2.3736   -2.5305   -0.6497 C   0  0  0  0  0  0  0  0  0  0  0  0
   -1.4771   -2.8219    0.5139 C   0  0  0  0  0  0  0  0  0  0  0  0
   -1.1438   -1.6987    1.2425 O   0  0  0  0  0  0  0  0  0  0  0  0
   -0.1113   -1.0081    0.7133 N   0  0  0  0  0  0  0  0  0  0  0  0
    1.1902   -1.3919    1.3291 C   0  0  0  0  0  3  0  0  0  0  0  0
    0.4166   -0.1559    1.7450 C   0  0  0  0  0  0  0  0  0  0  0  0
   -0.2632   -0.1397    3.0876 C   0  0  0  0  0  0  0  0  0  0  0  0
  1  2  1  0
  2  3  1  0
  2  4  1  0
  4  5  1  0
  5  6  1  0
  6  7  1  0
  7  8  1  6
  7  9  1  0
  9 10  1  6
 10 11  1  0
 11 12  1  0
 12 13  1  6
 12 14  1  0
 14 15  1  0
 15 16  1  0
 15 17  1  0
 17 18  1  0
 18 19  1  0
 19 20  1  0
 19 21  1  0
 21 22  1  0
 22 23  1  0
 23 24  1  0
 24 25  1  0
 25 26  1  0
 26 27  1  0
 27 28  1  0
 27  9  1  0
 22 18  1  0
 27 25  1  0
M  RAD  1  26   2
M  END
$$$$
