
     RDKit          3D

 23 24  0  0  0  0  0  0  0  0999 V2000
   -2.7425   -2.2072   -0.4097 C   0  0  0  0  0  0  0  0  0  0  0  0
   -2.7321   -0.7071   -0.6344 C   0  0  1  0  0  0  0  0  0  0  0  0
   -4.0245   -0.1675   -0.1192 C   0  0  0  0  0  0  0  0  0  0  0  0
   -4.0256    1.2315    0.3596 C   0  0  2  0  0  0  0  0  0  0  0  0
   -5.1205    1.9907    0.0263 O   0  0  0  0  0  0  0  0  0  0  0  0
   -2.7120    1.9485    0.0288 C   0  0  2  0  0  0  0  0  0  0  0  0
   -2.4998    1.8723   -1.3421 O   0  0  0  0  0  0  0  0  0  0  0  0
   -1.6497    1.1224    0.7101 C   0  0  1  0  0  0  0  0  0  0  0  0
   -2.1301    0.7572    1.9783 O   0  0  0  0  0  0  0  0  0  0  0  0
   -1.4836   -0.1646   -0.0787 C   0  0  1  0  0  0  0  0  0  0  0  0
   -0.7522   -1.0576    0.8135 N   0  0  0  0  0  0  0  0  0  0  0  0
    0.6867   -0.9342    0.6784 C   0  0  1  0  0  0  0  0  0  0  0  0
    1.1301   -1.6208   -0.6095 C   0  0  0  0  0  0  0  0  0  0  0  0
    2.5270   -2.1836   -0.3164 C   0  0  0  0  0  3  0  0  0  0  0  0
    2.7653   -3.3145   -1.0719 O   0  0  0  0  0  0  0  0  0  0  0  0
    3.5443   -1.0964   -0.5755 C   0  0  1  0  0  0  0  0  0  0  0  0
    3.1370   -0.3143   -1.6571 O   0  0  0  0  0  0  0  0  0  0  0  0
    3.6907   -0.2955    0.6956 C   0  0  1  0  0  0  0  0  0  0  0  0
    4.9997    0.1747    0.8164 O   0  0  0  0  0  0  0  0  0  0  0  0
    2.5794    0.8912    0.9362 S   0  0  0  0  0  0  0  0  0  0  0  0
    3.1149    2.5566    0.4524 O   0  0  0  0  0  0  0  0  0  0  0  0
    1.0130    0.5645    0.5754 C   0  0  1  0  0  0  0  0  0  0  0  0
    0.6844    0.9535   -0.7449 O   0  0  0  0  0  0  0  0  0  0  0  0
  2  1  1  1
  2  3  1  0
  3  4  1  0
  4  5  1  6
  4  6  1  0
  6  7  1  6
  6  8  1  0
  8  9  1  1
  8 10  1  0
 10 11  1  1
 12 11  1  6
 12 13  1  0
 13 14  1  0
 14 15  1  0
 14 16  1  0
 16 17  1  6
 16 18  1  0
 18 19  1  6
 18 20  1  0
 20 21  1  0
 20 22  1  0
 22 23  1  6
 10  2  1  0
 22 12  1  0
M  RAD  1  14   2
M  END
$$$$
