
     RDKit          3D

 27 28  0  0  0  0  0  0  0  0999 V2000
    4.9373   -2.2901    0.0632 S   0  0  0  0  0  0  0  0  0  0  0  0
    4.7794   -0.9025    0.4652 C   0  0  0  0  0  0  0  0  0  0  0  0
    3.4303   -0.3423    0.4101 C   0  0  0  0  0  0  0  0  0  0  0  0
    3.0090    0.3626    1.6693 C   0  0  0  0  0  0  0  0  0  0  0  0
    3.9382    1.4920    1.9483 C   0  0  0  0  0  0  0  0  0  0  0  0
    4.0159    2.4521    0.9344 O   0  0  0  0  0  0  0  0  0  0  0  0
    3.4613    2.6238   -0.2930 N   0  0  0  0  0  0  0  0  0  0  0  0
    2.3818    1.8996   -1.2466 S   0  0  0  0  0  0  0  0  0  0  0  0
    1.4076    0.3093   -0.8365 S   0  0  0  0  0  0  0  0  0  0  0  0
    1.6082   -0.9929   -1.8666 N   0  0  0  0  0  0  0  0  0  0  0  0
    1.4053   -2.0876   -1.4678 O   0  0  0  0  0  0  0  0  0  0  0  0
    1.6457    0.7587    1.6863 N   0  0  0  0  0  0  0  0  0  0  0  0
    0.9293    0.4844    0.5419 N   0  0  0  0  0  0  0  0  0  0  0  0
   -0.4328    0.4262    0.8466 N   0  0  0  0  0  0  0  0  0  0  0  0
   -1.0263   -0.8558    0.8945 C   0  0  0  0  0  0  0  0  0  0  0  0
   -2.3042   -1.0696    1.1399 C   0  0  0  0  0  0  0  0  0  0  0  0
   -2.7265   -2.4471    1.1481 N   0  0  0  0  0  0  0  0  0  0  0  0
   -2.7336   -3.1938   -0.0473 N   0  0  0  0  0  0  0  0  0  0  0  0
   -3.5217   -2.8909   -1.0229 C   0  0  0  0  0  0  0  0  0  0  0  0
   -4.4750   -1.7535   -0.9822 C   0  0  0  0  0  0  0  0  0  0  0  0
   -4.2921   -0.8996   -2.2223 C   0  0  0  0  0  0  0  0  0  0  0  0
   -3.4872    0.2723   -1.9508 N   0  0  0  0  0  0  0  0  0  0  0  0
   -4.1214    1.1103   -0.9472 C   0  0  0  0  0  3  0  0  0  0  0  0
   -3.1236    1.9019   -0.3554 O   0  0  0  0  0  0  0  0  0  0  0  0
   -2.6909    1.3798    0.8485 C   0  0  0  0  0  0  0  0  0  0  0  0
   -1.2267    1.6073    1.1061 C   0  0  2  0  0  0  0  0  0  0  0  0
   -0.7875    2.6453    0.2925 F   0  0  0  0  0  0  0  0  0  0  0  0
  1  2  2  0
  2  3  1  0
  3  4  1  0
  4  5  1  0
  5  6  1  0
  6  7  1  0
  7  8  2  3
  8  9  1  0
  9 10  1  0
 10 11  2  0
  4 12  1  0
 12 13  1  0
 13 14  1  0
 14 15  1  0
 15 16  2  3
 16 17  1  0
 17 18  1  0
 18 19  2  3
 19 20  1  0
 20 21  1  0
 21 22  1  0
 22 23  1  0
 23 24  1  0
 24 25  1  0
 25 26  1  0
 26 27  1  6
 13  9  1  0
 26 14  1  0
M  RAD  1  23   2
M  END
$$$$
