
     RDKit          3D

 25 27  0  0  0  0  0  0  0  0999 V2000
    1.4303    0.0608    1.1920 C   0  0  0  0  0  0  0  0  0  0  0  0
    1.8051    0.7847   -0.0496 C   0  0  1  0  0  0  0  0  0  0  0  0
    2.7949    1.8904    0.2232 C   0  0  0  0  0  0  0  0  0  0  0  0
    4.1928    1.2716    0.2023 C   0  0  2  0  0  0  0  0  0  0  0  0
    4.6211    1.0706   -1.1175 O   0  0  0  0  0  0  0  0  0  0  0  0
    4.0606   -0.0973    0.8377 C   0  0  2  0  0  0  0  0  0  0  0  0
    5.2363   -0.5571    1.3798 O   0  0  0  0  0  0  0  0  0  0  0  0
    3.4724   -1.0280   -0.1967 C   0  0  1  0  0  0  0  0  0  0  0  0
    2.8883   -2.1284    0.4087 O   0  0  0  0  0  0  0  0  0  0  0  0
    2.4370   -0.2351   -0.9824 C   0  0  1  0  0  0  0  0  0  0  0  0
    1.3679   -1.0927   -1.4543 N   0  0  0  0  0  0  0  0  0  0  0  0
    0.2339   -0.2262   -1.7633 C   0  0  0  0  0  3  0  0  0  0  0  0
   -0.9295   -0.6968   -0.9657 C   0  0  0  0  0  0  0  0  0  0  0  0
   -1.8416   -1.4574   -1.6528 O   0  0  0  0  0  0  0  0  0  0  0  0
   -2.9750   -0.7495   -2.0375 C   0  0  0  0  0  0  0  0  0  0  0  0
   -4.0634   -0.9788   -1.2065 O   0  0  0  0  0  0  0  0  0  0  0  0
   -4.7067    0.2331   -0.9690 C   0  0  0  0  0  3  0  0  0  0  0  0
   -4.9920    0.4583    0.3552 O   0  0  0  0  0  0  0  0  0  0  0  0
   -3.7765    0.7215    1.0284 C   0  0  1  0  0  0  0  0  0  0  0  0
   -3.9450    0.5985    2.4084 O   0  0  0  0  0  0  0  0  0  0  0  0
   -2.7825   -0.2760    0.5381 C   0  0  2  0  0  0  0  0  0  0  0  0
   -2.4175   -1.2265    1.4679 O   0  0  0  0  0  0  0  0  0  0  0  0
   -1.5672    0.3770   -0.1180 C   0  0  1  0  0  0  0  0  0  0  0  0
   -0.7452    0.8409    0.9050 O   0  0  0  0  0  0  0  0  0  0  0  0
    0.2015    0.1447    1.5665 N   0  0  0  0  0  0  0  0  0  0  0  0
  1  2  1  0
  2  3  1  1
  3  4  1  0
  4  5  1  6
  4  6  1  0
  6  7  1  6
  6  8  1  0
  8  9  1  1
  8 10  1  0
 10 11  1  1
 11 12  1  0
 12 13  1  0
 13 14  1  0
 14 15  1  0
 15 16  1  0
 16 17  1  0
 17 18  1  0
 18 19  1  0
 19 20  1  1
 19 21  1  0
 21 22  1  1
 21 23  1  0
 23 24  1  1
 24 25  1  0
  1 25  2  3
 10  2  1  0
 23 13  1  0
M  RAD  2  12   2  17   2
M  END
$$$$
