
     RDKit          3D

  5  4  0  0  0  0  0  0  0  0999 V2000
   -2.2884    0.1497   -0.9557 O   0  0  0  0  0  0  0  0  0  0  0  0
   -1.0734    0.0849   -0.2733 C   0  0  0  0  0  0  0  0  0  0  0  0
    0.0047   -0.3094   -0.8740 N   0  0  0  0  0  0  0  0  0  0  0  0
    1.1958   -0.3542   -0.1383 C   0  0  0  0  0  3  0  0  0  0  0  0
    2.1614    0.4290   -0.3212 O   0  0  0  0  0  0  0  0  0  0  0  0
  1  2  1  0
  2  3  2  3
  3  4  1  0
  4  5  2  0
M  RAD  1   4   2
M  END
$$$$
