
     RDKit          2D

 93 93  0  0  0  0  0  0  0  0999 V2000
    4.2098   -6.4952    0.0000 C   0  0  0  0  0  0  0  0  0  0  0  0
    3.4598   -5.1962    0.0000 O   0  0  0  0  0  0  0  0  0  0  0  0
    4.2098   -3.8971    0.0000 C   0  0  0  0  0  3  0  0  0  0  0  0
    3.4598   -2.5981    0.0000 O   0  0  0  0  0  0  0  0  0  0  0  0
    4.2098   -1.2990    0.0000 C   0  0  0  0  0  0  0  0  0  0  0  0
    5.7098   -1.2990    0.0000 C   0  0  0  0  0  0  0  0  0  0  0  0
    3.4598   -0.0000    0.0000 C   0  0  0  0  0  3  0  0  0  0  0  0
    1.9598    0.0000    0.0000 C   0  0  0  0  0  0  0  0  0  0  0  0
    1.3858   -1.3858    0.0000 C   0  0  0  0  0  3  0  0  0  0  0  0
   -0.0000   -1.9598    0.0000 C   0  0  0  0  0  0  0  0  0  0  0  0
   -1.3858   -1.3858    0.0000 C   0  0  0  0  0  0  0  0  0  0  0  0
   -2.4465   -2.4465    0.0000 O   0  0  0  0  0  0  0  0  0  0  0  0
   -1.9598    0.0000    0.0000 C   0  0  0  0  0  0  0  0  0  0  0  0
   -3.4598    0.0000    0.0000 C   0  0  0  0  0  0  0  0  0  0  0  0
   -4.2098    1.2990    0.0000 O   0  0  0  0  0  0  0  0  0  0  0  0
   -1.3858    1.3858    0.0000 C   0  0  0  0  0  0  0  0  0  0  0  0
    0.0000    1.9598    0.0000 O   0  0  0  0  0  0  0  0  0  0  0  0
   -2.4465    2.4465    0.0000 C   0  0  0  0  0  0  0  0  0  0  0  0
   -2.0583    3.8954    0.0000 O   0  0  0  0  0  0  0  0  0  0  0  0
   -3.8954    2.0583    0.0000 C   0  0  0  0  0  3  0  0  0  0  0  0
   -4.9560    3.1189    0.0000 C   0  0  0  0  0  0  0  0  0  0  0  0
   -6.4049    2.7307    0.0000 O   0  0  0  0  0  0  0  0  0  0  0  0
   -7.4656    3.7913    0.0000 C   0  0  0  0  0  3  0  0  0  0  0  0
   -8.9145    3.4031    0.0000 O   0  0  0  0  0  0  0  0  0  0  0  0
   -9.9751    4.4638    0.0000 C   0  0  0  0  0  0  0  0  0  0  0  0
  -11.4240    4.0755    0.0000 O   0  0  0  0  0  0  0  0  0  0  0  0
    1.3858    1.3858    0.0000 C   0  0  0  0  0  0  0  0  0  0  0  0
    2.4465    2.4465    0.0000 O   0  0  0  0  0  0  0  0  0  0  0  0
    2.0583    3.8954    0.0000 C   0  0  0  0  0  0  0  0  0  0  0  0
    3.1189    4.9560    0.0000 C   0  0  0  0  0  3  0  0  0  0  0  0
    2.7307    6.4049    0.0000 C   0  0  0  0  0  0  0  0  0  0  0  0
    3.7913    7.4656    0.0000 C   0  0  0  0  0  2  0  0  0  0  0  0
    1.2818    6.7931    0.0000 O   0  0  0  0  0  0  0  0  0  0  0  0
    0.8936    8.2420    0.0000 C   0  0  0  0  0  3  0  0  0  0  0  0
   -0.5553    8.6303    0.0000 O   0  0  0  0  0  0  0  0  0  0  0  0
   -0.9436   10.0792    0.0000 C   0  0  0  0  0  0  0  0  0  0  0  0
    0.6094    4.2836    0.0000 O   0  0  0  0  0  0  0  0  0  0  0  0
    0.2211    5.7325    0.0000 C   0  0  0  0  0  3  0  0  0  0  0  0
   -1.2278    6.1207    0.0000 O   0  0  0  0  0  0  0  0  0  0  0  0
   -1.6160    7.5696    0.0000 C   0  0  0  0  0  3  0  0  0  0  0  0
   -3.0649    7.9578    0.0000 O   0  0  0  0  0  0  0  0  0  0  0  0
   -3.4531    9.4067    0.0000 C   0  0  0  0  0  0  0  0  0  0  0  0
   -2.3924   10.4674    0.0000 C   0  0  0  0  0  3  0  0  0  0  0  0
   -2.7807   11.9163    0.0000 O   0  0  0  0  0  0  0  0  0  0  0  0
   -1.7200   12.9769    0.0000 C   0  0  0  0  0  3  0  0  0  0  0  0
   -2.1082   14.4258    0.0000 O   0  0  0  0  0  0  0  0  0  0  0  0
   -4.9020    9.7949    0.0000 C   0  0  0  0  0  3  0  0  0  0  0  0
   -5.2902   11.2438    0.0000 C   0  0  0  0  0  3  0  0  0  0  0  0
   -6.7391   11.6321    0.0000 O   0  0  0  0  0  0  0  0  0  0  0  0
   -7.1273   13.0810    0.0000 C   0  0  0  0  0  0  0  0  0  0  0  0
   -8.5762   13.4692    0.0000 C   0  0  0  0  0  0  0  0  0  0  0  0
   -8.9645   14.9181    0.0000 C   0  0  0  0  0  0  0  0  0  0  0  0
  -10.4133   15.3063    0.0000 C   0  0  0  0  0  0  0  0  0  0  0  0
  -10.8016   16.7552    0.0000 O   0  0  0  0  0  0  0  0  0  0  0  0
  -12.2505   17.1434    0.0000 C   0  0  0  0  0  3  0  0  0  0  0  0
  -12.6387   18.5923    0.0000 O   0  0  0  0  0  0  0  0  0  0  0  0
  -14.0876   18.9805    0.0000 C   0  0  0  0  0  3  0  0  0  0  0  0
  -14.4758   20.4294    0.0000 O   0  0  0  0  0  0  0  0  0  0  0  0
  -15.9247   20.8177    0.0000 C   0  0  0  0  0  3  0  0  0  0  0  0
  -16.3129   22.2665    0.0000 O   0  0  0  0  0  0  0  0  0  0  0  0
  -17.7618   22.6548    0.0000 C   0  0  0  0  0  3  0  0  0  0  0  0
  -18.1500   24.1037    0.0000 O   0  0  0  0  0  0  0  0  0  0  0  0
  -19.5989   24.4919    0.0000 O   0  0  0  0  0  0  0  0  0  0  0  0
  -19.9872   25.9408    0.0000 N   0  0  0  0  0  0  0  0  0  0  0  0
  -21.4360   26.3290    0.0000 C   0  0  0  0  0  3  0  0  0  0  0  0
  -21.8243   27.7779    0.0000 C   0  0  0  0  0  3  0  0  0  0  0  0
  -23.2732   28.1661    0.0000 C   0  0  0  0  0  3  0  0  0  0  0  0
  -23.6614   29.6150    0.0000 C   0  0  0  0  0  3  0  0  0  0  0  0
  -25.1103   30.0032    0.0000 O   0  0  0  0  0  0  0  0  0  0  0  0
  -25.4985   31.4521    0.0000 C   0  0  0  0  0  0  0  0  0  0  0  0
  -24.4378   32.5128    0.0000 O   0  0  0  0  0  0  0  0  0  0  0  0
  -26.9474   31.8404    0.0000 C   0  0  0  0  0  3  0  0  0  0  0  0
  -27.3356   33.2892    0.0000 O   0  0  0  0  0  0  0  0  0  0  0  0
  -28.7845   33.6775    0.0000 O   0  0  0  0  0  0  0  0  0  0  0  0
  -29.1727   35.1264    0.0000 C   0  0  0  0  0  0  0  0  0  0  0  0
  -28.1121   36.1870    0.0000 O   0  0  0  0  0  0  0  0  0  0  0  0
  -30.6216   35.5146    0.0000 C   0  0  0  0  0  3  0  0  0  0  0  0
  -31.0099   36.9635    0.0000 O   0  0  0  0  0  0  0  0  0  0  0  0
  -32.4587   37.3517    0.0000 C   0  0  0  0  0  0  0  0  0  0  0  0
  -32.8470   38.8006    0.0000 C   0  0  0  0  0  0  0  0  0  0  0  0
  -34.2959   39.1888    0.0000 C   0  0  0  0  0  0  0  0  0  0  0  0
  -34.6841   40.6377    0.0000 C   0  0  0  0  0  0  0  0  0  0  0  0
  -33.2352   41.0259    0.0000 C   0  0  0  0  0  0  0  0  0  0  0  0
  -32.8470   42.4748    0.0000 C   0  0  0  0  0  0  0  0  0  0  0  0
  -32.1745   39.9653    0.0000 C   0  0  0  0  0  3  0  0  0  0  0  0
  -30.7257   40.3535    0.0000 O   0  0  0  0  0  0  0  0  0  0  0  0
  -29.6650   39.2929    0.0000 N   0  0  0  0  0  0  0  0  0  0  0  0
  -28.2161   39.6811    0.0000 C   0  0  0  0  0  3  0  0  0  0  0  0
  -27.1554   38.6204    0.0000 O   0  0  0  0  0  0  0  0  0  0  0  0
  -25.7066   39.0086    0.0000 C   0  0  0  0  0  3  0  0  0  0  0  0
  -24.6459   37.9480    0.0000 C   0  0  0  0  0  2  0  0  0  0  0  0
  -36.1330   40.2495    0.0000 N   0  0  0  0  0  0  0  0  0  0  0  0
  -35.0723   42.0866    0.0000 C   0  0  0  0  0  2  0  0  0  0  0  0
  1  2  1  0
  2  3  1  0
  3  4  1  0
  4  5  1  0
  5  6  1  1
  5  7  1  0
  8  7  1  1
  8  9  1  0
  9 10  1  0
 10 11  1  0
 11 12  1  6
 11 13  1  0
 13 14  1  6
 14 15  1  0
 13 16  1  0
 16 17  1  1
 16 18  1  0
 18 19  1  1
 18 20  1  0
 20 21  1  0
 21 22  1  0
 22 23  1  0
 23 24  1  0
 24 25  1  0
 25 26  1  0
  8 27  1  0
 27 28  1  6
 28 29  1  0
 29 30  1  1
 30 31  1  0
 31 32  1  1
 31 33  1  0
 33 34  1  0
 34 35  1  0
 35 36  1  0
 29 37  1  0
 37 38  1  0
 38 39  1  0
 39 40  1  0
 40 41  1  0
 41 42  1  0
 42 43  1  1
 43 44  1  0
 44 45  1  0
 45 46  1  0
 42 47  1  0
 47 48  1  0
 48 49  1  0
 49 50  1  0
 50 51  1  0
 51 52  1  0
 52 53  1  0
 53 54  1  0
 54 55  1  0
 55 56  1  0
 56 57  1  0
 57 58  1  0
 58 59  1  0
 59 60  1  0
 60 61  1  0
 61 62  1  0
 62 63  1  0
 63 64  1  0
 64 65  1  0
 65 66  1  0
 66 67  1  0
 67 68  1  0
 68 69  1  0
 69 70  1  0
 70 71  1  1
 70 72  1  0
 72 73  1  0
 73 74  1  0
 74 75  1  0
 75 76  1  1
 75 77  1  0
 77 78  1  0
 78 79  1  0
 79 80  1  0
 80 81  1  0
 81 82  1  0
 82 83  1  0
 83 84  1  6
 83 85  1  0
 85 86  1  0
 86 87  1  0
 87 88  1  0
 88 89  1  0
 89 90  1  0
 90 91  1  0
 82 92  1  0
 82 93  1  6
 27 17  1  0
M  RAD  8   3   2   7   2   9   2  20   2  23   2  30   2  32   3  34   2
M  RAD  8  38   2  40   2  43   2  45   2  47   2  48   2  55   2  57   2
M  RAD  8  59   2  61   2  65   2  66   2  67   2  68   2  72   2  77   2
M  RAD  5  85   2  88   2  90   2  91   3  93   3
M  END
$$$$
