
     RDKit          3D

 13 12  0  0  0  0  0  0  0  0999 V2000
    4.1349    0.4149    1.5744 C   0  0  0  0  0  0  0  0  0  0  0  0
    3.0676    1.0288    0.8672 O   0  0  0  0  0  0  0  0  0  0  0  0
    3.3033    0.7324   -0.5876 C   0  0  0  0  0  3  0  0  0  0  0  0
    2.2651   -0.2758   -0.7029 O   0  0  0  0  0  0  0  0  0  0  0  0
    1.2949    0.3317   -1.6248 C   0  0  2  0  0  0  0  0  0  0  0  0
    0.4384    1.2289   -0.6647 C   0  0  0  0  0  0  0  0  0  0  0  0
    0.2532   -0.9740   -1.7122 C   0  0  0  0  0  0  0  0  0  0  0  0
   -0.8416   -0.8449   -1.0721 C   0  0  0  0  0  0  0  0  0  0  0  0
   -1.2172    0.2960   -0.3384 N   0  0  0  0  0  0  0  0  0  0  0  0
   -2.5282    0.9581   -0.3484 C   0  0  0  0  0  3  0  0  0  0  0  0
   -3.6050    0.1725    0.2741 C   0  0  0  0  0  0  0  0  0  0  0  0
   -3.8102    0.4836    1.6994 C   0  0  0  0  0  3  0  0  0  0  0  0
   -2.7553    0.1089    2.6362 C   0  0  0  0  0  0  0  0  0  0  0  0
  1  2  1  0
  2  3  1  0
  3  4  1  0
  4  5  1  0
  5  6  1  1
  5  7  1  0
  7  8  2  3
  8  9  1  0
  9 10  1  0
 10 11  1  0
 11 12  1  0
 12 13  1  0
M  RAD  3   3   2  10   2  12   2
M  END
$$$$
