
     RDKit          2D

 77 77  0  0  0  0  0  0  0  0999 V2000
    6.7068    5.4244    0.0000 C   0  0  0  0  0  0  0  0  0  0  0  0
    6.3731    3.9620    0.0000 O   0  0  0  0  0  0  0  0  0  0  0  0
    4.9397    3.5199    0.0000 C   0  0  0  0  0  3  0  0  0  0  0  0
    4.6059    2.0575    0.0000 O   0  0  0  0  0  0  0  0  0  0  0  0
    3.1726    1.6154    0.0000 C   0  0  0  0  0  0  0  0  0  0  0  0
    2.0730    2.6356    0.0000 C   0  0  0  0  0  0  0  0  0  0  0  0
    2.8388    0.1530    0.0000 C   0  0  0  0  0  3  0  0  0  0  0  0
    3.9384   -0.8673    0.0000 C   0  0  0  0  0  0  0  0  0  0  0  0
    5.3347   -0.3193    0.0000 C   0  0  0  0  0  3  0  0  0  0  0  0
    6.6337   -1.0693    0.0000 C   0  0  0  0  0  3  0  0  0  0  0  0
    6.8573   -2.5525    0.0000 C   0  0  0  0  0  0  0  0  0  0  0  0
    8.2906   -2.9946    0.0000 C   0  0  0  0  0  0  0  0  0  0  0  0
    9.3902   -1.9744    0.0000 O   0  0  0  0  0  0  0  0  0  0  0  0
    5.8370   -3.6521    0.0000 O   0  0  0  0  0  0  0  0  0  0  0  0
    4.3412   -3.5400    0.0000 C   0  0  0  0  0  0  0  0  0  0  0  0
    3.5912   -4.8390    0.0000 O   0  0  0  0  0  0  0  0  0  0  0  0
    4.3412   -6.1381    0.0000 C   0  0  0  0  0  3  0  0  0  0  0  0
    3.5912   -7.4371    0.0000 C   0  0  0  0  0  0  0  0  0  0  0  0
    4.3412   -8.7361    0.0000 O   0  0  0  0  0  0  0  0  0  0  0  0
    3.5912  -10.0352    0.0000 C   0  0  0  0  0  3  0  0  0  0  0  0
    4.3412  -11.3342    0.0000 O   0  0  0  0  0  0  0  0  0  0  0  0
    3.5912  -12.6333    0.0000 N   0  0  0  0  0  0  0  0  0  0  0  0
    4.3412  -13.9323    0.0000 C   0  0  0  0  0  3  0  0  0  0  0  0
    3.5912  -15.2313    0.0000 N   0  0  0  0  0  0  0  0  0  0  0  0
    3.4962   -2.3006    0.0000 C   0  0  0  0  0  0  0  0  0  0  0  0
    2.0130   -2.5242    0.0000 O   0  0  0  0  0  0  0  0  0  0  0  0
    1.4650   -3.9205    0.0000 C   0  0  0  0  0  0  0  0  0  0  0  0
    2.4002   -5.0933    0.0000 C   0  0  0  0  0  3  0  0  0  0  0  0
    1.8522   -6.4896    0.0000 C   0  0  0  0  0  0  0  0  0  0  0  0
    2.7874   -7.6623    0.0000 C   0  0  0  0  0  2  0  0  0  0  0  0
    0.3689   -6.7131    0.0000 O   0  0  0  0  0  0  0  0  0  0  0  0
   -0.1791   -8.1094    0.0000 C   0  0  0  0  0  3  0  0  0  0  0  0
   -1.6623   -8.3330    0.0000 C   0  0  0  0  0  0  0  0  0  0  0  0
   -2.2103   -9.7293    0.0000 O   0  0  0  0  0  0  0  0  0  0  0  0
   -3.6936   -9.9529    0.0000 C   0  0  0  0  0  3  0  0  0  0  0  0
   -4.2416  -11.3492    0.0000 O   0  0  0  0  0  0  0  0  0  0  0  0
   -5.7248  -11.5728    0.0000 C   0  0  0  0  0  3  0  0  0  0  0  0
   -6.2728  -12.9691    0.0000 O   0  0  0  0  0  0  0  0  0  0  0  0
   -7.7561  -13.1926    0.0000 C   0  0  0  0  0  3  0  0  0  0  0  0
   -8.3041  -14.5889    0.0000 O   0  0  0  0  0  0  0  0  0  0  0  0
   -9.7873  -14.8125    0.0000 C   0  0  0  0  0  3  0  0  0  0  0  0
  -10.3354  -16.2088    0.0000 C   0  0  0  0  0  2  0  0  0  0  0  0
   -0.0183   -4.1441    0.0000 O   0  0  0  0  0  0  0  0  0  0  0  0
   -0.5663   -5.5404    0.0000 C   0  0  0  0  0  0  0  0  0  0  0  0
   -2.0495   -5.7639    0.0000 C   0  0  0  0  0  3  0  0  0  0  0  0
   -2.9848   -4.5912    0.0000 C   0  0  0  0  0  3  0  0  0  0  0  0
   -4.4680   -4.8148    0.0000 C   0  0  0  0  0  3  0  0  0  0  0  0
   -5.4032   -3.6420    0.0000 C   0  0  0  0  0  0  0  0  0  0  0  0
   -6.8865   -3.8656    0.0000 C   0  0  0  0  0  0  0  0  0  0  0  0
   -7.8217   -2.6928    0.0000 C   0  0  0  0  0  0  0  0  0  0  0  0
   -7.4345   -5.2619    0.0000 C   0  0  0  0  0  0  0  0  0  0  0  0
   -8.9178   -5.4855    0.0000 O   0  0  0  0  0  0  0  0  0  0  0  0
   -9.4658   -6.8818    0.0000 N   0  0  0  0  0  0  0  0  0  0  0  0
  -10.9490   -7.1053    0.0000 C   0  0  0  0  0  3  0  0  0  0  0  0
  -11.4970   -8.5016    0.0000 C   0  0  0  0  0  3  0  0  0  0  0  0
  -12.9803   -8.7252    0.0000 C   0  0  0  0  0  3  0  0  0  0  0  0
  -13.5283  -10.1215    0.0000 C   0  0  0  0  0  0  0  0  0  0  0  0
  -12.5930  -11.2943    0.0000 O   0  0  0  0  0  0  0  0  0  0  0  0
  -15.0115  -10.3451    0.0000 C   0  0  0  0  0  3  0  0  0  0  0  0
  -15.5595  -11.7414    0.0000 O   0  0  0  0  0  0  0  0  0  0  0  0
  -17.0428  -11.9650    0.0000 N   0  0  0  0  0  0  0  0  0  0  0  0
  -17.5908  -13.3613    0.0000 C   0  0  0  0  0  0  0  0  0  0  0  0
  -17.9780  -10.7922    0.0000 O   0  0  0  0  0  0  0  0  0  0  0  0
   -4.8552   -2.2457    0.0000 C   0  0  0  0  0  3  0  0  0  0  0  0
   -5.7905   -1.0730    0.0000 O   0  0  0  0  0  0  0  0  0  0  0  0
   -5.2425    0.3234    0.0000 N   0  0  0  0  0  0  0  0  0  0  0  0
   -6.1777    1.4961    0.0000 C   0  0  0  0  0  0  0  0  0  0  0  0
   -5.6297    2.8924    0.0000 C   0  0  0  0  0  0  0  0  0  0  0  0
   -7.6609    1.2725    0.0000 C   0  0  0  0  0  0  0  0  0  0  0  0
   -8.5962    2.4453    0.0000 N   0  0  0  0  0  0  0  0  0  0  0  0
  -10.0794    2.2217    0.0000 C   0  0  0  0  0  3  0  0  0  0  0  0
  -11.0147    3.3945    0.0000 N   0  0  0  0  0  0  0  0  0  0  0  0
  -12.4979    3.1709    0.0000 N   0  0  0  0  0  0  0  0  0  0  0  0
  -13.4331    4.3436    0.0000 C   0  0  0  0  0  3  0  0  0  0  0  0
  -14.9164    4.1201    0.0000 N   0  0  0  0  0  0  0  0  0  0  0  0
  -15.8516    5.2928    0.0000 C   0  0  0  0  0  3  0  0  0  0  0  0
  -17.3349    5.0693    0.0000 C   0  0  0  0  0  2  0  0  0  0  0  0
  1  2  1  0
  2  3  1  0
  3  4  1  0
  4  5  1  0
  5  6  1  1
  5  7  1  0
  8  7  1  1
  8  9  1  0
  9 10  1  0
 10 11  1  0
 11 12  1  1
 12 13  2  0
 11 14  1  0
 14 15  1  0
 15 16  1  0
 16 17  1  0
 17 18  1  0
 18 19  1  0
 19 20  1  0
 20 21  1  0
 21 22  1  0
 22 23  1  0
 23 24  1  0
  8 25  1  0
 25 26  1  6
 26 27  1  0
 27 28  1  6
 28 29  1  0
 29 30  1  6
 29 31  1  0
 31 32  1  0
 32 33  1  0
 33 34  1  0
 34 35  1  0
 35 36  1  0
 36 37  1  0
 37 38  1  0
 38 39  1  0
 39 40  1  0
 40 41  1  0
 41 42  1  0
 27 43  1  0
 43 44  1  0
 44 45  1  0
 45 46  1  0
 46 47  1  0
 48 47  1  6
 48 49  1  0
 49 50  1  1
 49 51  1  0
 51 52  1  0
 52 53  1  0
 53 54  1  0
 54 55  1  0
 55 56  1  0
 56 57  1  0
 57 58  1  6
 57 59  1  0
 59 60  1  0
 60 61  1  0
 61 62  1  0
 61 63  1  0
 48 64  1  0
 64 65  1  0
 65 66  1  0
 66 67  1  0
 67 68  1  1
 67 69  1  0
 69 70  1  0
 70 71  1  0
 71 72  1  0
 72 73  1  0
 73 74  1  0
 74 75  1  0
 75 76  1  0
 76 77  1  0
 25 15  1  0
M  RAD  8   3   2   7   2   9   2  10   2  17   2  20   2  23   2  28   2
M  RAD  8  30   3  32   2  35   2  37   2  39   2  41   2  42   3  45   2
M  RAD  8  46   2  47   2  54   2  55   2  56   2  59   2  64   2  71   2
M  RAD  3  74   2  76   2  77   3
M  END
$$$$
