
     RDKit          3D

  7  7  0  0  0  0  0  0  0  0999 V2000
    1.4510   -0.2292    0.3775 C   0  0  0  0  0  0  0  0  0  0  0  0
    1.1865    1.1232   -0.2987 C   0  0  0  0  0  2  0  0  0  0  0  0
   -0.3025    1.2916   -0.3478 C   0  0  0  0  0  0  0  0  0  0  0  0
   -1.0834    0.0568   -0.1440 C   0  0  2  0  0  0  0  0  0  0  0  0
   -1.5723    0.0518    1.1775 O   0  0  0  0  0  0  0  0  0  0  0  0
   -0.4748   -1.1226   -0.3777 O   0  0  0  0  0  0  0  0  0  0  0  0
    0.7955   -1.1716   -0.3868 O   0  0  0  0  0  0  0  0  0  0  0  0
  1  2  1  0
  2  3  1  0
  3  4  1  0
  4  5  1  1
  4  6  1  0
  6  7  1  0
  7  1  1  0
M  RAD  1   2   3
M  END
$$$$
