
     RDKit          3D

 19 19  0  0  0  0  0  0  0  0999 V2000
    1.5416   -1.9205   -0.0337 C   0  0  0  0  0  0  0  0  0  0  0  0
    2.6629   -2.2621    0.3099 N   0  0  0  0  0  4  0  0  0  0  0  0
    3.6898   -1.9869   -0.3072 C   0  0  0  0  0  0  0  0  0  0  0  0
    4.1096   -0.8140   -0.4913 N   0  0  0  0  0  3  0  0  0  0  0  0
    4.5727   -0.0094    0.5455 O   0  0  0  0  0  0  0  0  0  0  0  0
    4.9014    1.6354    0.0186 P   0  0  0  0  0  0  0  0  0  0  0  0
    3.6031    2.6260   -0.2177 C   0  0  0  0  0  0  0  0  0  0  0  0
    1.9054    2.0995    0.0370 S   0  0  0  0  0  0  0  0  0  0  0  0
    2.0099    0.3414    1.2728 S   0  0  0  0  0  0  0  0  0  0  0  0
    0.9660   -0.9169    0.5621 C   0  0  0  0  0  0  0  0  0  0  0  0
   -0.3969   -0.8464    0.6311 O   0  0  0  0  0  0  0  0  0  0  0  0
   -1.0675   -0.0249   -0.2727 N   0  0  0  0  0  2  0  0  0  0  0  0
   -2.0408   -0.7836   -0.9127 N   0  0  0  0  0  0  0  0  0  0  0  0
   -3.0320   -1.2282   -0.0094 N   0  0  0  0  0  0  0  0  0  0  0  0
   -4.0984   -0.3912    0.4048 C   0  0  0  0  0  0  0  0  0  0  0  0
   -4.2606    0.7701   -0.1001 N   0  0  0  0  0  4  0  0  0  0  0  0
   -5.3429    1.6258    0.3169 C   0  0  0  0  0  2  0  0  0  0  0  0
   -6.3282    0.8929    1.0863 N   0  0  0  0  0  0  0  0  0  0  0  0
   -3.3954    1.1929   -1.0413 F   0  0  0  0  0  0  0  0  0  0  0  0
  1  2  2  0
  2  3  2  0
  3  4  2  0
  4  5  1  0
  5  6  1  0
  6  7  2  3
  7  8  1  0
  8  9  1  0
  9 10  1  0
 10 11  1  0
 11 12  1  0
 12 13  1  0
 13 14  1  0
 14 15  1  0
 15 16  2  3
 16 17  1  0
 17 18  1  0
 16 19  1  0
  1 10  2  0
M  CHG  4   2   1   4   1  12   1  16   1
M  RAD  3   4   2  12   3  17   3
M  END
$$$$
