
     RDKit          3D

 30 29  0  0  0  0  0  0  0  0999 V2000
    8.3970    0.9818    1.1514 C   0  0  0  0  0  0  0  0  0  0  0  0
    8.0170    1.4454   -0.2428 C   0  0  0  0  0  0  0  0  0  0  0  0
    7.3507    2.7948   -0.2112 C   0  0  0  0  0  0  0  0  0  0  0  0
    7.2016    0.4132   -0.9759 C   0  0  0  0  0  0  0  0  0  0  0  0
    5.9055    0.0876   -0.2541 C   0  0  0  0  0  0  0  0  0  0  0  0
    5.1750   -0.9472   -1.0691 C   0  0  0  0  0  0  0  0  0  0  0  0
    3.8960   -1.3214   -0.4325 C   0  0  1  0  0  0  0  0  0  0  0  0
    3.0580   -2.3341   -1.0909 C   0  0  0  0  0  0  0  0  0  0  0  0
    4.0225   -1.3816    1.0507 C   0  0  0  0  0  3  0  0  0  0  0  0
    4.2941    0.0048    1.5907 C   0  0  0  0  0  0  0  0  0  0  0  0
    3.1013    0.8630    1.3427 C   0  0  0  0  0  0  0  0  0  0  0  0
    2.7137    1.0130   -0.1034 C   0  0  0  0  0  3  0  0  0  0  0  0
    1.5074    1.8962   -0.1915 C   0  0  0  0  0  2  0  0  0  0  0  0
    0.3001    1.0997   -0.6600 C   0  0  0  0  0  3  0  0  0  0  0  0
   -0.6117    0.7722    0.4969 C   0  0  0  0  0  0  0  0  0  0  0  0
   -1.1203    2.0467    1.1700 C   0  0  0  0  0  2  0  0  0  0  0  0
   -2.0468    1.6652    2.2887 C   0  0  0  0  0  3  0  0  0  0  0  0
   -3.4523    2.1509    2.0582 C   0  0  0  0  0  0  0  0  0  0  0  0
   -4.2932    1.6961    3.1428 N   0  0  0  0  0  1  0  0  0  0  0  0
   -3.9805    1.5426    0.7765 C   0  0  0  0  0  3  0  0  0  0  0  0
   -3.1415    1.9287   -0.3964 C   0  0  0  0  0  0  0  0  0  0  0  0
   -3.6095    1.3649   -1.6695 C   0  0  0  0  0  0  0  0  0  0  0  0
   -3.6217   -0.0549   -1.8139 C   0  0  0  0  0  0  0  0  0  0  0  0
   -4.3491   -1.0109   -1.0303 C   0  0  0  0  0  0  0  0  0  0  0  0
   -4.1352   -1.1664    0.4162 C   0  0  0  0  0  0  0  0  0  0  0  0
   -4.8379   -2.1257   -1.6873 O   0  0  0  0  0  0  0  0  0  0  0  0
   -5.5218   -2.9926   -0.8700 C   0  0  2  0  0  0  0  0  0  0  0  0
   -5.9572   -4.0569   -1.6336 F   0  0  0  0  0  0  0  0  0  0  0  0
   -6.6718   -2.3824   -0.1360 C   0  0  0  0  0  0  0  0  0  0  0  0
   -7.5895   -1.8830   -1.0164 F   0  0  0  0  0  0  0  0  0  0  0  0
  1  2  1  0
  2  3  1  0
  2  4  1  0
  4  5  1  0
  5  6  1  0
  6  7  1  0
  7  8  1  6
  7  9  1  0
  9 10  1  0
 10 11  1  0
 11 12  1  0
 12 13  1  0
 13 14  1  0
 14 15  1  0
 15 16  1  0
 16 17  1  0
 17 18  1  0
 18 19  1  0
 18 20  1  0
 20 21  1  0
 21 22  1  0
 22 23  1  0
 23 24  1  0
 24 25  1  0
 24 26  1  0
 26 27  1  0
 27 28  1  6
 27 29  1  0
 29 30  1  0
M  RAD  8   9   2  12   2  13   3  14   2  16   3  17   2  19   2  20   2
M  CHG  1  19   1
M  END
$$$$
