
     RDKit          3D

  5  4  0  0  0  0  0  0  0  0999 V2000
   -1.4074    0.9621   -0.0064 F   0  0  0  0  0  0  0  0  0  0  0  0
   -1.2747   -0.3826   -0.1609 N   0  0  0  0  0  2  0  0  0  0  0  0
   -0.0604   -0.8019    0.3567 O   0  0  0  0  0  0  0  0  0  0  0  0
    0.9577    0.1114    0.4177 N   0  0  0  0  0  3  0  0  0  0  0  0
    1.7848    0.1110   -0.5551 N   0  0  0  0  0  2  0  0  0  0  0  0
  1  2  1  0
  2  3  1  0
  3  4  1  0
  4  5  2  0
M  CHG  3   2   1   4   1   5  -1
M  RAD  2   2   3   4   2
M  END
$$$$
