
     RDKit          3D

 38 38  0  0  0  0  0  0  0  0999 V2000
    0.4694    6.6911    1.6138 O   0  0  0  0  0  0  0  0  0  0  0  0
    0.8962    6.5621    0.3572 O   0  0  0  0  0  0  0  0  0  0  0  0
    0.9582    5.1759    0.1034 C   0  0  0  0  0  3  0  0  0  0  0  0
   -0.1866    4.8058   -0.6270 O   0  0  0  0  0  0  0  0  0  0  0  0
   -0.1657    3.4971   -0.9999 C   0  0  2  0  0  0  0  0  0  0  0  0
   -1.4311    3.1715   -1.7789 C   0  0  0  0  0  0  0  0  0  0  0  0
   -0.1582    2.6074    0.2506 C   0  0  0  0  0  3  0  0  0  0  0  0
   -0.1822    1.2172   -0.2458 C   0  0  1  0  0  0  0  0  0  0  0  0
   -1.4094    0.8466   -0.9849 C   0  0  0  0  0  3  0  0  0  0  0  0
   -2.5328    0.5534    0.0265 C   0  0  0  0  0  3  0  0  0  0  0  0
   -2.7283   -0.9823   -0.0845 C   0  0  0  0  0  0  0  0  0  0  0  0
   -2.7604   -1.2858   -1.9006 S   0  0  0  0  0  0  0  0  0  0  0  0
   -4.1754   -0.5430   -2.5341 O   0  0  0  0  0  1  0  0  0  0  0  0
   -1.4225   -1.5916    0.3987 C   0  0  0  0  0  0  0  0  0  0  0  0
   -1.4856   -2.0854    1.6802 O   0  0  0  0  0  0  0  0  0  0  0  0
   -1.8263   -3.3782    1.6832 O   0  0  0  0  0  0  0  0  0  0  0  0
   -3.0759   -3.5763    1.1263 C   0  0  2  0  0  0  0  0  0  0  0  0
   -3.0370   -3.8720   -0.3359 C   0  0  0  0  0  0  0  0  0  0  0  0
   -2.2977   -5.0459   -0.5611 O   0  0  0  0  0  1  0  0  0  0  0  0
   -3.8686   -2.4904    1.4418 O   0  0  0  0  0  0  0  0  0  0  0  0
   -3.9418   -1.5028    0.5156 C   0  0  1  0  0  0  0  0  0  0  0  0
   -4.8871   -0.4251    0.9443 C   0  0  0  0  0  0  0  0  0  0  0  0
   -5.2886    0.3885   -0.2500 C   0  0  0  0  0  0  0  0  0  0  0  0
   -6.2519    1.5119    0.0969 C   0  0  0  0  0  3  0  0  0  0  0  0
   -5.6331    2.4878    1.0777 C   0  0  0  0  0  2  0  0  0  0  0  0
    0.9530    0.7057   -0.9275 N   0  0  0  0  0  0  0  0  0  0  0  0
    2.1693    0.6406   -0.2351 C   0  0  2  0  0  0  0  0  0  0  0  0
    3.3007    1.3184   -0.9226 C   0  0  0  0  0  0  0  0  0  0  0  0
    2.4993   -0.7477    0.1948 C   0  0  1  0  0  0  0  0  0  0  0  0
    2.5605   -1.6053   -0.9384 O   0  0  0  0  0  1  0  0  0  0  0  0
    3.9213   -0.7190    0.7655 C   0  0  0  0  0  0  0  0  0  0  0  0
    4.2786   -2.1337    1.2197 C   0  0  2  0  0  0  0  0  0  0  0  0
    6.0000   -2.0119    1.8497 S   0  0  0  0  0  0  0  0  0  0  0  0
    7.0628   -1.6326    0.3998 C   0  0  0  0  0  0  0  0  0  0  0  0
    6.6370   -0.2646   -0.1019 C   0  0  0  0  0  0  0  0  0  0  0  0
    7.4456    0.1141   -1.3101 C   0  0  0  0  0  0  0  0  0  0  0  0
    4.2104   -3.3115   -0.1124 S   0  0  0  0  0  0  0  0  0  0  0  0
    5.3840   -3.0901   -1.3051 O   0  0  0  0  0  1  0  0  0  0  0  0
  1  2  1  0
  2  3  1  0
  3  4  1  0
  4  5  1  0
  5  6  1  6
  5  7  1  0
  8  7  1  6
  8  9  1  0
  9 10  1  0
 10 11  1  0
 11 12  1  0
 12 13  1  0
 11 14  1  0
 14 15  1  0
 15 16  1  0
 16 17  1  0
 17 18  1  6
 18 19  1  0
 17 20  1  0
 20 21  1  0
 21 22  1  1
 22 23  1  0
 23 24  1  0
 24 25  1  0
  8 26  1  0
 26 27  1  0
 27 28  1  6
 27 29  1  0
 29 30  1  6
 29 31  1  0
 32 31  1  6
 32 33  1  0
 33 34  1  0
 34 35  1  0
 35 36  1  0
 32 37  1  0
 37 38  1  0
 21 11  1  0
M  CHG  4  13  -1  19  -1  30  -1  38  -1
M  RAD  6   3   2   7   2   9   2  10   2  24   2  25   3
M  END
$$$$
