
     RDKit          3D

  6  5  0  0  0  0  0  0  0  0999 V2000
   -2.7849    0.6110    0.0442 N   0  0  0  0  0  0  0  0  0  0  0  0
   -1.9921   -0.3492   -0.3155 C   0  0  0  0  0  0  0  0  0  0  0  0
   -0.5754   -0.3126   -0.0294 C   0  0  0  0  0  0  0  0  0  0  0  0
    0.6061   -0.2615    0.2081 C   0  0  0  0  0  0  0  0  0  0  0  0
    1.9775   -0.2259    0.4856 N   0  0  0  0  0  0  0  0  0  0  0  0
    2.7689    0.5381   -0.1131 O   0  0  0  0  0  0  0  0  0  0  0  0
  1  2  2  0
  2  3  1  0
  3  4  3  0
  4  5  1  0
  5  6  2  0
M  END
$$$$
