
     RDKit          3D

 23 22  0  0  0  0  0  0  0  0999 V2000
   -3.7306    3.8737    1.4485 C   0  0  0  0  0  0  0  0  0  0  0  0
   -4.4982    2.8695    0.6098 C   0  0  0  0  0  0  0  0  0  0  0  0
   -3.5966    1.9139    0.0898 O   0  0  0  0  0  0  0  0  0  0  0  0
   -4.3725    1.0324   -0.6637 C   0  0  0  0  0  0  0  0  0  0  0  0
   -3.4159   -0.0117   -1.2367 C   0  0  0  0  0  0  0  0  0  0  0  0
   -4.1843   -0.9805   -2.0506 C   0  0  0  0  0  0  0  0  0  0  0  0
   -5.2464   -1.7421   -1.3440 C   0  0  0  0  0  0  0  0  0  0  0  0
   -4.8162   -2.6413   -0.2392 C   0  0  0  0  0  0  0  0  0  0  0  0
   -3.9246   -3.7174   -0.6753 C   0  0  0  0  0  0  0  0  0  0  0  0
   -2.7112   -3.9424   -0.2137 C   0  0  0  0  0  0  0  0  0  0  0  0
   -2.6056   -0.6251   -0.1473 C   0  0  0  0  0  0  0  0  0  0  0  0
   -1.7863    0.3946    0.5812 C   0  0  0  0  0  0  0  0  0  0  0  0
   -1.0137   -0.2679    1.6377 C   0  0  0  0  0  0  0  0  0  0  0  0
    0.3043   -0.2052    1.6244 C   0  0  0  0  0  0  0  0  0  0  0  0
    0.9877    0.5188    0.5650 C   0  0  0  0  0  0  0  0  0  0  0  0
    2.3073    0.5699    0.5693 C   0  0  0  0  0  0  0  0  0  0  0  0
    3.0281    1.2944   -0.4887 C   0  0  0  0  0  0  0  0  0  0  0  0
    4.3298    1.2491   -0.5160 C   0  0  0  0  0  0  0  0  0  0  0  0
    5.6419    1.3998   -0.4911 C   0  0  0  0  0  0  0  0  0  0  0  0
    6.3042    1.1553    0.7836 C   0  0  0  0  0  0  0  0  0  0  0  0
    7.1756    0.1686    0.8439 C   0  0  0  0  0  0  0  0  0  0  0  0
    7.4870   -0.6597   -0.2912 C   0  0  0  0  0  0  0  0  0  0  0  0
    8.3366   -1.6469   -0.2939 C   0  0  0  0  0  0  0  0  0  0  0  0
  1  2  1  0
  2  3  1  0
  3  4  1  0
  4  5  1  0
  5  6  1  0
  6  7  1  0
  7  8  1  0
  8  9  1  0
  9 10  2  0
  5 11  1  0
 11 12  1  0
 12 13  1  0
 13 14  2  3
 14 15  1  0
 15 16  2  3
 16 17  1  0
 17 18  2  0
 18 19  2  0
 19 20  1  0
 20 21  2  3
 21 22  1  0
 22 23  2  0
M  END
$$$$
