
     RDKit          3D

 28 28  0  0  0  0  0  0  0  0999 V2000
   -6.9443    2.5977    0.0545 C   0  0  0  0  0  0  0  0  0  0  0  0
   -5.4271    2.5446   -0.0142 C   0  0  0  0  0  0  0  0  0  0  0  0
   -4.9205    1.7313    1.1790 C   0  0  0  0  0  0  0  0  0  0  0  0
   -4.9954    1.8777   -1.3044 C   0  0  0  0  0  0  0  0  0  0  0  0
   -5.5505    0.4594   -1.3583 C   0  0  0  0  0  0  0  0  0  0  0  0
   -5.0067   -0.3133   -0.1683 C   0  0  0  0  0  0  0  0  0  0  0  0
   -3.4877   -0.3514   -0.2272 C   0  0  1  0  0  0  0  0  0  0  0  0
   -2.9933   -1.1306    0.9771 C   0  0  0  0  0  0  0  0  0  0  0  0
   -3.1308   -1.1480   -1.4819 C   0  0  0  0  0  3  0  0  0  0  0  0
   -1.6366   -1.2055   -1.5712 C   0  0  0  0  0  0  0  0  0  0  0  0
   -1.0448   -1.8843   -0.3480 C   0  0  0  0  0  0  0  0  0  0  0  0
    0.4551   -1.9417   -0.4382 C   0  0  1  0  0  0  0  0  0  0  0  0
    0.9761   -2.6802   -1.6016 C   0  0  0  0  0  0  0  0  0  0  0  0
    1.0373   -0.6335   -0.1021 C   0  0  0  0  0  0  0  0  0  0  0  0
    2.4993   -0.4841   -0.1409 C   0  0  0  0  0  0  0  0  0  0  0  0
    3.1942   -0.7068   -1.4250 C   0  0  0  0  0  3  0  0  0  0  0  0
    2.8726    0.2602   -2.5092 C   0  0  0  0  0  0  0  0  0  0  0  0
    1.4498    0.3559   -2.9233 C   0  0  0  0  0  0  0  0  0  0  0  0
    3.8601    0.2485   -3.6385 C   0  0  0  0  0  0  0  0  0  0  0  0
    3.4864    1.1729   -4.5982 O   0  0  0  0  0  0  0  0  0  0  0  0
    3.2388   -0.8996    1.0800 C   0  0  0  0  0  0  0  0  0  0  0  0
    2.7256   -0.0365    2.2403 C   0  0  0  0  0  0  0  0  0  0  0  0
    1.2409   -0.2327    2.4500 C   0  0  0  0  0  0  0  0  0  0  0  0
    3.0598    1.4308    1.9653 C   0  0  0  0  0  3  0  0  0  0  0  0
    4.4147    1.4536    2.2693 O   0  0  0  0  0  0  0  0  0  0  0  0
    4.5662    0.7569    3.4597 C   0  0  0  0  0  0  0  0  0  0  0  0
    3.4861   -0.2939    3.5042 C   0  0  0  0  0  0  0  0  0  0  0  0
    2.5746    0.0529    4.6710 C   0  0  0  0  0  2  0  0  0  0  0  0
  1  2  1  0
  2  3  1  0
  2  4  1  0
  4  5  1  0
  5  6  1  0
  6  7  1  0
  7  8  1  1
  7  9  1  0
  9 10  1  0
 10 11  1  0
 11 12  1  0
 12 13  1  6
 12 14  1  0
 14 15  1  0
 15 16  1  0
 16 17  1  0
 17 18  1  0
 17 19  1  0
 19 20  1  0
 15 21  1  0
 21 22  1  0
 22 23  1  0
 22 24  1  0
 24 25  1  0
 25 26  1  0
 26 27  1  0
 27 28  1  0
 27 22  1  0
M  RAD  4   9   2  16   2  24   2  28   3
M  END
$$$$
