
     RDKit          3D

 27 28  0  0  0  0  0  0  0  0999 V2000
   -3.0628    4.0901    0.2270 C   0  0  0  0  0  0  0  0  0  0  0  0
   -1.7235    3.6131    0.2351 C   0  0  0  0  0  0  0  0  0  0  0  0
   -1.2652    2.3642    0.2572 C   0  0  0  0  0  0  0  0  0  0  0  0
    0.1578    2.1491    0.3077 C   0  0  0  0  0  0  0  0  0  0  0  0
    0.7781    1.0079    0.1055 C   0  0  0  0  0  0  0  0  0  0  0  0
   -0.0257   -0.2331   -0.2274 C   0  0  0  0  0  0  0  0  0  0  0  0
    0.7229   -1.2900   -0.2667 C   0  0  0  0  0  0  0  0  0  0  0  0
    0.5021   -2.6751   -0.5390 C   0  0  0  0  0  0  0  0  0  0  0  0
   -0.3883   -3.4149   -0.3461 C   0  0  0  0  0  0  0  0  0  0  0  0
   -1.4996   -4.1707   -0.0610 C   0  0  0  0  0  3  0  0  0  0  0  0
   -1.6806   -5.4836   -0.7969 C   0  0  0  0  0  0  0  0  0  0  0  0
   -2.6659   -3.3601   -0.1993 O   0  0  0  0  0  0  0  0  0  0  0  0
   -2.1828   -2.3781   -1.1068 C   0  0  0  0  0  0  0  0  0  0  0  0
   -2.3350   -1.0046   -0.6670 C   0  0  0  0  0  0  0  0  0  0  0  0
   -1.4429   -0.0877   -0.2956 C   0  0  0  0  0  0  0  0  0  0  0  0
   -2.0461    1.2411   -0.0402 N   0  0  0  0  0  0  0  0  0  0  0  0
   -3.5095    1.3105   -0.0651 C   0  0  0  0  0  0  0  0  0  0  0  0
   -3.9480    1.9742   -1.1811 C   0  0  0  0  0  0  0  0  0  0  0  0
   -5.3261    2.1285   -1.3464 C   0  0  0  0  0  0  0  0  0  0  0  0
   -6.5556    2.2574   -1.5075 N   0  0  0  0  0  0  0  0  0  0  0  0
    2.2016    0.8802    0.3303 C   0  0  0  0  0  0  0  0  0  0  0  0
    2.9477   -0.1555    0.1268 C   0  0  0  0  0  0  0  0  0  0  0  0
    4.2746   -0.3459    0.3350 C   0  0  0  0  0  0  0  0  0  0  0  0
    5.4197   -0.6662    0.4581 C   0  0  0  0  0  0  0  0  0  0  0  0
    6.5294    0.0776    0.9693 C   0  0  0  0  0  0  0  0  0  0  0  0
    7.5036    0.7152    1.3960 C   0  0  0  0  0  0  0  0  0  0  0  0
    8.6203    1.4566    1.8952 C   0  0  0  0  0  0  0  0  0  0  0  0
  1  2  1  0
  2  3  2  3
  3  4  1  0
  4  5  2  0
  5  6  1  0
  6  7  2  3
  7  8  1  0
  8  9  2  3
  9 10  1  0
 10 11  1  0
 10 12  1  0
 12 13  1  0
 13 14  1  0
 14 15  2  3
 15 16  1  0
 16 17  1  0
 17 18  2  3
 18 19  1  0
 19 20  3  0
  5 21  1  0
 21 22  2  3
 22 23  1  0
 23 24  2  3
 24 25  1  0
 25 26  3  0
 26 27  1  0
 16  3  1  0
 15  6  1  0
M  RAD  1  10   2
M  END
$$$$
