
     RDKit          3D

 33 33  0  0  0  0  0  0  0  0999 V2000
   -6.8055    0.9527   -4.0574 C   0  0  0  0  0  0  0  0  0  0  0  0
   -5.4631    1.2484   -3.7521 O   0  0  0  0  0  0  0  0  0  0  0  0
   -5.3203    1.0710   -2.3578 C   0  0  0  0  0  3  0  0  0  0  0  0
   -5.7848   -0.1991   -2.0114 O   0  0  0  0  0  0  0  0  0  0  0  0
   -5.1349   -0.6821   -0.8959 C   0  0  0  0  0  0  0  0  0  0  0  0
   -5.3913    0.2731    0.2512 C   0  0  0  0  0  0  0  0  0  0  0  0
   -4.6773   -0.2602    1.4708 C   0  0  0  0  0  0  0  0  0  0  0  0
   -3.1987   -0.3527    1.1954 C   0  0  2  0  0  0  0  0  0  0  0  0
   -2.4300   -0.8763    2.3682 C   0  0  1  0  0  0  0  0  0  0  0  0
   -1.5828    0.2576    2.9130 C   0  0  0  0  0  3  0  0  0  0  0  0
   -2.0955    1.4809    2.1822 C   0  0  0  0  0  0  0  0  0  0  0  0
   -2.5930    0.9857    0.8632 C   0  0  0  0  0  0  0  0  0  0  0  0
   -3.5385    1.8296    0.2884 O   0  0  0  0  0  0  0  0  0  0  0  0
   -1.4433    0.7908   -0.1103 C   0  0  0  0  0  0  0  0  0  0  0  0
   -0.3893   -0.0972    0.5169 C   0  0  0  0  0  0  0  0  0  0  0  0
    0.6552   -0.2646   -0.3882 O   0  0  0  0  0  0  0  0  0  0  0  0
    1.5789   -1.0306    0.1354 O   0  0  0  0  0  0  0  0  0  0  0  0
    2.5444   -1.2673   -0.8409 C   0  0  0  0  0  3  0  0  0  0  0  0
    3.5778   -0.3416   -0.7503 O   0  0  0  0  0  0  0  0  0  0  0  0
    4.8156   -0.9693   -0.6514 C   0  0  0  0  0  3  0  0  0  0  0  0
    5.4999   -0.8863   -2.0005 C   0  0  2  0  0  0  0  0  0  0  0  0
    6.8450   -1.5318   -2.0123 C   0  0  0  0  0  0  0  0  0  0  0  0
    7.7277   -0.9533   -1.0998 O   0  0  0  0  0  0  0  0  0  0  0  0
    8.8967   -1.5307   -1.1252 O   0  0  0  0  0  0  0  0  0  0  0  0
    8.8539   -2.8042   -1.4064 O   0  0  0  0  0  0  0  0  0  0  0  0
    5.5090    0.5512   -2.4361 C   0  0  0  0  0  3  0  0  0  0  0  0
    6.1939    1.3209   -1.5167 O   0  0  0  0  0  0  0  0  0  0  0  0
    5.7925    2.6404   -1.4892 C   0  0  0  0  0  0  0  0  0  0  0  0
    4.3379    2.8070   -1.1412 C   0  0  0  0  0  2  0  0  0  0  0  0
   -3.3325   -1.3113    3.3335 O   0  0  0  0  0  0  0  0  0  0  0  0
   -4.1742   -0.3015    3.7899 C   0  0  0  0  0  0  0  0  0  0  0  0
   -5.0940   -0.8912    4.8197 C   0  0  0  0  0  0  0  0  0  0  0  0
   -4.3794   -1.4263    5.9153 O   0  0  0  0  0  0  0  0  0  0  0  0
  1  2  1  0
  2  3  1  0
  3  4  1  0
  4  5  1  0
  5  6  1  0
  6  7  1  0
  8  7  1  1
  8  9  1  0
  9 10  1  0
 10 11  1  0
 11 12  1  0
 12 13  1  0
 12 14  1  0
 14 15  1  0
 15 16  1  0
 16 17  1  0
 17 18  1  0
 18 19  1  0
 19 20  1  0
 21 20  1  1
 21 22  1  0
 22 23  1  0
 23 24  1  0
 24 25  1  0
 21 26  1  0
 26 27  1  0
 27 28  1  0
 28 29  1  0
  9 30  1  1
 30 31  1  0
 31 32  1  0
 32 33  1  0
 12  8  1  0
M  RAD  6   3   2  10   2  18   2  20   2  26   2  29   3
M  END
$$$$
