
     RDKit          2D

 17 19  0  0  0  0  0  0  0  0999 V2000
    5.8103    8.5992    0.0000 C   0  0  0  0  0  0  0  0  0  0  0  0
    4.5968    7.7175    0.0000 O   0  0  0  0  0  0  0  0  0  0  0  0
    4.7536    6.2257    0.0000 C   0  0  0  0  0  0  0  0  0  0  0  0
    6.1239    5.6156    0.0000 C   0  0  0  0  0  0  0  0  0  0  0  0
    6.2807    4.1238    0.0000 C   0  0  0  0  0  0  0  0  0  0  0  0
    5.0672    3.2422    0.0000 C   0  0  0  0  0  0  0  0  0  0  0  0
    3.6968    3.8523    0.0000 C   0  0  0  0  0  0  0  0  0  0  0  0
    3.5401    5.3441    0.0000 C   0  0  0  0  0  0  0  0  0  0  0  0
    2.4833    2.9706    0.0000 C   0  0  0  0  0  0  0  0  0  0  0  0
    2.6401    1.4788    0.0000 O   0  0  0  0  0  0  0  0  0  0  0  0
    1.4266    0.5971    0.0000 C   0  0  0  0  0  0  0  0  0  0  0  0
    1.4266   -0.9029    0.0000 C   0  0  0  0  0  0  0  0  0  0  0  0
   -0.0000   -1.0607    0.0000 C   0  0  0  0  0  0  0  0  0  0  0  0
    1.0607    0.0000    0.0000 C   0  0  0  0  0  0  0  0  0  0  0  0
   -1.0607    0.0000    0.0000 C   0  0  0  0  0  0  0  0  0  0  0  0
    0.0000    1.0607    0.0000 C   0  0  0  0  0  0  0  0  0  0  0  0
    1.1130    3.5807    0.0000 O   0  0  0  0  0  0  0  0  0  0  0  0
  1  2  1  0
  2  3  1  0
  3  4  2  0
  4  5  1  0
  5  6  2  0
  6  7  1  0
  7  8  2  0
  7  9  1  0
  9 10  1  0
 10 11  1  0
 11 12  1  0
 12 13  2  0
 13 14  1  0
 13 15  1  0
 15 16  2  0
  9 17  2  0
  8  3  1  0
 16 11  1  0
 16 14  1  0
M  END
$$$$
