
     RDKit          2D

 99 99  0  0  0  0  0  0  0  0999 V2000
    9.0993  -19.1347    0.0000 C   0  0  0  0  0  0  0  0  0  0  0  0
    7.8521  -18.3013    0.0000 C   0  0  0  0  0  0  0  0  0  0  0  0
    6.5068  -18.9647    0.0000 C   0  0  0  0  0  0  0  0  0  0  0  0
    7.9502  -16.8045    0.0000 C   0  0  0  0  0  0  0  0  0  0  0  0
    6.7030  -15.9712    0.0000 C   0  0  0  0  0  0  0  0  0  0  0  0
    6.8011  -14.4744    0.0000 C   0  0  0  0  0  0  0  0  0  0  0  0
    5.5539  -13.6410    0.0000 C   0  0  0  0  0  0  0  0  0  0  0  0
    4.2086  -14.3045    0.0000 C   0  0  0  0  0  0  0  0  0  0  0  0
    5.6520  -12.1442    0.0000 C   0  0  0  0  0  3  0  0  0  0  0  0
    6.9974  -11.4808    0.0000 C   0  0  0  0  0  0  0  0  0  0  0  0
    7.0955   -9.9840    0.0000 C   0  0  0  0  0  0  0  0  0  0  0  0
    8.4408   -9.3206    0.0000 C   0  0  0  0  0  0  0  0  0  0  0  0
    9.6880  -10.1539    0.0000 C   0  0  0  0  0  0  0  0  0  0  0  0
    8.5389   -7.8238    0.0000 C   0  0  0  0  0  0  0  0  0  0  0  0
    7.2917   -6.9904    0.0000 C   0  0  0  0  0  0  0  0  0  0  0  0
    7.3898   -5.4936    0.0000 C   0  0  0  0  0  0  0  0  0  0  0  0
    6.1426   -4.6603    0.0000 C   0  0  0  0  0  0  0  0  0  0  0  0
    6.2407   -3.1635    0.0000 N   0  0  0  0  0  3  0  0  0  0  0  0
    4.9935   -2.3301    0.0000 C   0  0  0  0  0  0  0  0  0  0  0  0
    5.0916   -0.8334    0.0000 C   0  0  0  0  0  0  0  0  0  0  0  0
    3.8444    0.0000    0.0000 C   0  0  0  0  0  0  0  0  0  0  0  0
    5.0916    0.8334    0.0000 C   0  0  0  0  0  0  0  0  0  0  0  0
    3.5517   -1.4712    0.0000 C   0  0  0  0  0  0  0  0  0  0  0  0
    2.7184   -2.7184    0.0000 C   0  0  0  0  0  0  0  0  0  0  0  0
    1.4712   -3.5517    0.0000 C   0  0  0  0  0  0  0  0  0  0  0  0
   -0.0000   -3.8444    0.0000 C   0  0  0  0  0  0  0  0  0  0  0  0
   -1.4712   -3.5517    0.0000 C   0  0  0  0  0  0  0  0  0  0  0  0
   -2.7184   -2.7184    0.0000 C   0  0  0  0  0  0  0  0  0  0  0  0
   -3.5517   -1.4712    0.0000 O   0  0  0  0  0  0  0  0  0  0  0  0
   -3.8444    0.0000    0.0000 C   0  0  0  0  0  0  0  0  0  0  0  0
   -3.5517    1.4712    0.0000 C   0  0  0  0  0  0  0  0  0  0  0  0
   -2.7184    2.7184    0.0000 C   0  0  0  0  0  0  0  0  0  0  0  0
   -1.4712    3.5517    0.0000 C   0  0  0  0  0  0  0  0  0  0  0  0
    0.0000    3.8444    0.0000 C   0  0  0  0  0  0  0  0  0  0  0  0
    1.4712    3.5517    0.0000 C   0  0  0  0  0  0  0  0  0  0  0  0
    2.7184    2.7184    0.0000 C   0  0  0  0  0  3  0  0  0  0  0  0
    3.5517    1.4712    0.0000 C   0  0  0  0  0  0  0  0  0  0  0  0
    4.9376    2.0452    0.0000 C   0  0  0  0  0  0  0  0  0  0  0  0
    6.1276    1.1321    0.0000 C   0  0  0  0  0  0  0  0  0  0  0  0
    7.5134    1.7061    0.0000 O   0  0  0  0  0  0  0  0  0  0  0  0
    8.7034    0.7929    0.0000 C   0  0  0  0  0  0  0  0  0  0  0  0
   10.0893    1.3670    0.0000 C   0  0  0  0  0  0  0  0  0  0  0  0
   11.2793    0.4538    0.0000 N   0  0  0  0  0  0  0  0  0  0  0  0
   10.2850    2.8541    0.0000 N   0  0  0  0  0  2  0  0  0  0  0  0
   11.6709    3.4282    0.0000 C   0  0  0  0  0  0  0  0  0  0  0  0
   11.8667    4.9153    0.0000 C   0  0  0  0  0  0  0  0  0  0  0  0
   13.2525    5.4894    0.0000 C   0  0  0  0  0  0  0  0  0  0  0  0
   13.4483    6.9765    0.0000 C   0  0  0  0  0  0  0  0  0  0  0  0
   14.8341    7.5505    0.0000 C   0  0  0  0  0  0  0  0  0  0  0  0
   15.0299    9.0377    0.0000 C   0  0  0  0  0  0  0  0  0  0  0  0
   16.4157    9.6117    0.0000 C   0  0  0  0  0  0  0  0  0  0  0  0
   16.6115   11.0989    0.0000 C   0  0  0  0  0  0  0  0  0  0  0  0
   17.9973   11.6729    0.0000 C   0  0  0  0  0  0  0  0  0  0  0  0
   18.1931   13.1601    0.0000 C   0  0  0  0  0  0  0  0  0  0  0  0
   19.1873   10.7598    0.0000 C   0  0  0  0  0  0  0  0  0  0  0  0
   20.5731   11.3338    0.0000 C   0  0  0  0  0  0  0  0  0  0  0  0
   18.9915    9.2726    0.0000 C   0  0  0  0  0  0  0  0  0  0  0  0
   20.1816    8.3595    0.0000 C   0  0  0  0  0  3  0  0  0  0  0  0
   19.9858    6.8723    0.0000 C   0  0  0  0  0  0  0  0  0  0  0  0
   21.1758    5.9592    0.0000 C   0  0  0  0  0  0  0  0  0  0  0  0
   22.5616    6.5332    0.0000 N   0  0  0  0  0  0  0  0  0  0  0  0
   20.9800    4.4720    0.0000 C   0  0  0  0  0  0  0  0  0  0  0  0
   22.1701    3.5589    0.0000 C   0  0  0  0  0  0  0  0  0  0  0  0
   21.9743    2.0717    0.0000 C   0  0  0  0  0  0  0  0  0  0  0  0
   23.1643    1.1586    0.0000 C   0  0  0  0  0  0  0  0  0  0  0  0
   22.9685   -0.3286    0.0000 C   0  0  0  0  0  0  0  0  0  0  0  0
   24.1585   -1.2418    0.0000 C   0  0  0  0  0  0  0  0  0  0  0  0
   23.9627   -2.7289    0.0000 C   0  0  0  0  0  3  0  0  0  0  0  0
   25.1528   -3.6421    0.0000 C   0  0  0  0  0  0  0  0  0  0  0  0
   24.9570   -5.1292    0.0000 C   0  0  0  0  0  3  0  0  0  0  0  0
   26.1470   -6.0424    0.0000 C   0  0  0  0  0  0  0  0  0  0  0  0
   25.9512   -7.5295    0.0000 C   0  0  0  0  0  0  0  0  0  0  0  0
   27.1413   -8.4427    0.0000 C   0  0  0  0  0  0  0  0  0  0  0  0
   26.9455   -9.9299    0.0000 C   0  0  0  0  0  0  0  0  0  0  0  0
   25.5596  -10.5039    0.0000 N   0  0  0  0  0  0  0  0  0  0  0  0
   28.1355  -10.8430    0.0000 C   0  0  0  0  0  0  0  0  0  0  0  0
   27.9397  -12.3302    0.0000 C   0  0  0  0  0  0  0  0  0  0  0  0
   29.1297  -13.2433    0.0000 C   0  0  0  0  0  0  0  0  0  0  0  0
   28.9339  -14.7305    0.0000 C   0  0  0  0  0  0  0  0  0  0  0  0
   30.1240  -15.6436    0.0000 C   0  0  0  0  0  0  0  0  0  0  0  0
   24.5654   -8.1036    0.0000 C   0  0  0  0  0  0  0  0  0  0  0  0
   24.3696   -9.5907    0.0000 C   0  0  0  0  0  0  0  0  0  0  0  0
   22.9838  -10.1648    0.0000 C   0  0  0  0  0  0  0  0  0  0  0  0
   22.7880  -11.6519    0.0000 C   0  0  0  0  0  3  0  0  0  0  0  0
   21.4022  -12.2260    0.0000 C   0  0  0  0  0  0  0  0  0  0  0  0
   21.2064  -13.7131    0.0000 C   0  0  0  0  0  0  0  0  0  0  0  0
   19.8206  -14.2871    0.0000 C   0  0  0  0  0  0  0  0  0  0  0  0
   19.6248  -15.7743    0.0000 C   0  0  0  0  0  3  0  0  0  0  0  0
   18.2390  -16.3483    0.0000 C   0  0  0  0  0  0  0  0  0  0  0  0
   18.0432  -17.8355    0.0000 C   0  0  0  0  0  0  0  0  0  0  0  0
   16.6574  -18.4095    0.0000 C   0  0  0  0  0  3  0  0  0  0  0  0
   16.4616  -19.8967    0.0000 C   0  0  0  0  0  3  0  0  0  0  0  0
   15.0758  -20.4707    0.0000 C   0  0  0  0  0  0  0  0  0  0  0  0
   13.6899  -21.0447    0.0000 C   0  0  0  0  0  0  0  0  0  0  0  0
   12.3041  -21.6188    0.0000 C   0  0  0  0  0  3  0  0  0  0  0  0
   12.1083  -23.1059    0.0000 C   0  0  0  0  0  0  0  0  0  0  0  0
   10.7225  -23.6800    0.0000 N   0  0  0  0  0  0  0  0  0  0  0  0
   10.5267  -25.1671    0.0000 C   0  0  0  0  0  0  0  0  0  0  0  0
    9.1409  -25.7412    0.0000 C   0  0  0  0  0  0  0  0  0  0  0  0
  1  2  1  0
  2  3  1  0
  2  4  1  0
  4  5  1  0
  5  6  1  0
  6  7  1  0
  7  8  1  1
  7  9  1  0
  9 10  1  0
 10 11  1  0
 11 12  1  0
 12 13  1  1
 12 14  1  0
 14 15  1  0
 15 16  1  0
 16 17  1  0
 17 18  2  3
 18 19  1  0
 19 20  1  0
 20 21  1  0
 21 22  1  0
 21 23  1  0
 23 24  1  0
 24 25  1  0
 25 26  1  0
 26 27  1  0
 27 28  1  0
 28 29  1  0
 29 30  1  0
 30 31  1  0
 31 32  1  0
 32 33  1  0
 33 34  1  0
 34 35  1  0
 35 36  1  0
 36 37  1  0
 37 38  1  0
 38 39  1  0
 39 40  1  0
 40 41  1  0
 41 42  1  0
 42 43  1  0
 42 44  1  0
 44 45  1  0
 45 46  1  0
 46 47  1  0
 47 48  1  0
 48 49  1  0
 49 50  1  0
 50 51  1  0
 51 52  1  0
 52 53  1  0
 53 54  1  0
 53 55  1  0
 55 56  1  0
 55 57  1  0
 57 58  1  0
 58 59  1  0
 59 60  1  0
 60 61  1  0
 60 62  1  0
 62 63  1  0
 63 64  1  0
 64 65  1  0
 65 66  1  0
 66 67  1  0
 67 68  1  0
 68 69  1  0
 69 70  1  0
 70 71  1  0
 71 72  1  0
 72 73  1  0
 73 74  1  0
 74 75  1  0
 74 76  2  3
 76 77  1  0
 77 78  1  0
 78 79  1  0
 79 80  1  0
 72 81  2  3
 81 82  1  0
 82 83  1  0
 83 84  1  0
 84 85  1  0
 85 86  1  0
 86 87  1  0
 87 88  1  0
 88 89  1  0
 89 90  1  0
 90 91  1  0
 91 92  1  0
 92 93  1  0
 93 94  3  0
 94 95  1  0
 95 96  1  0
 96 97  1  0
 97 98  1  0
 98 99  1  0
 37 21  1  0
M  RAD  8   9   2  18   2  36   2  44   3  58   2  68   2  70   2  84   2
M  CHG  2  18   1  44   1
M  RAD  4  88   2  91   2  92   2  95   2
M  END
$$$$
