
     RDKit          3D

 81 82  0  0  0  0  0  0  0  0999 V2000
   -4.0463   -7.0144   -0.5068 C   0  0  0  0  0  0  0  0  0  0  0  0
   -2.9086   -6.6139    0.2024 O   0  0  0  0  0  0  0  0  0  0  0  0
   -2.6820   -5.2822   -0.0739 C   0  0  0  0  0  3  0  0  0  0  0  0
   -1.3473   -4.9433    0.0584 O   0  0  0  0  0  0  0  0  0  0  0  0
   -1.1826   -3.5760   -0.0038 C   0  0  1  0  0  0  0  0  0  0  0  0
    0.2968   -3.2753    0.1477 C   0  0  0  0  0  0  0  0  0  0  0  0
    1.1039   -4.5530    0.2720 C   0  0  0  0  0  3  0  0  0  0  0  0
    0.7121   -5.5635   -0.7797 C   0  0  0  0  0  3  0  0  0  0  0  0
    0.5831   -6.9522   -0.2134 C   0  0  0  0  0  3  0  0  0  0  0  0
    1.7397   -7.3509    0.6442 C   0  0  0  0  0  0  0  0  0  0  0  0
    2.7108   -8.2723   -0.0297 C   0  0  0  0  0  0  0  0  0  0  0  0
    2.3728   -9.7255    0.1554 C   0  0  0  0  0  2  0  0  0  0  0  0
    2.7749   -8.0029   -1.5192 C   0  0  0  0  0  0  0  0  0  0  0  0
    3.2174   -6.5783   -1.8025 C   0  0  0  0  0  0  0  0  0  0  0  0
    3.9658   -8.0646    0.5692 O   0  0  0  0  0  0  0  0  0  0  0  0
    4.3594   -6.7329    0.4602 C   0  0  0  0  0  0  0  0  0  0  0  0
    5.7208   -6.6803    0.7688 O   0  0  0  0  0  0  0  0  0  0  0  0
    6.4312   -6.0148   -0.2309 C   0  0  2  0  0  0  0  0  0  0  0  0
    7.3695   -6.9029   -0.7635 O   0  0  0  0  0  0  0  0  0  0  0  0
    7.1820   -4.8605    0.4040 C   0  0  0  0  0  3  0  0  0  0  0  0
    7.6509   -3.9674   -0.5377 O   0  0  0  0  0  0  0  0  0  0  0  0
    9.0188   -4.1853   -0.7923 C   0  0  0  0  0  3  0  0  0  0  0  0
    9.7822   -3.2966    0.1489 C   0  0  0  0  0  3  0  0  0  0  0  0
   10.4684   -2.2965   -0.5193 O   0  0  0  0  0  0  0  0  0  0  0  0
   11.7463   -2.1908    0.0098 C   0  0  0  0  0  3  0  0  0  0  0  0
   12.3006   -0.9514   -0.3494 O   0  0  0  0  0  0  0  0  0  0  0  0
   11.5680    0.0400    0.2894 C   0  0  0  0  0  3  0  0  0  0  0  0
   12.0671    1.3782   -0.2344 C   0  0  0  0  0  0  0  0  0  0  0  0
   11.0880    2.3551   -0.1242 O   0  0  0  0  0  0  0  0  0  0  0  0
   11.6071    3.5572    0.2092 N   0  0  0  0  0  0  0  0  0  0  0  0
   11.1193    4.5598   -0.7182 C   0  0  0  0  0  3  0  0  0  0  0  0
   10.5087    5.6697    0.1266 C   0  0  0  0  0  3  0  0  0  0  0  0
    9.1418    5.7252   -0.1640 O   0  0  0  0  0  0  0  0  0  0  0  0
    8.6938    7.0189    0.1021 C   0  0  0  0  0  3  0  0  0  0  0  0
    7.5781    7.3168   -0.8711 C   0  0  0  0  0  3  0  0  0  0  0  0
    6.3599    7.7756   -0.1077 C   0  0  0  0  0  3  0  0  0  0  0  0
    6.0790    9.1003   -0.4774 O   0  0  0  0  0  0  0  0  0  0  0  0
    4.9186    9.5122    0.1817 C   0  0  0  0  0  3  0  0  0  0  0  0
    3.8170    9.2632   -0.6272 O   0  0  0  0  0  0  0  0  0  0  0  0
    2.8307    8.6289    0.1343 C   0  0  0  0  0  3  0  0  0  0  0  0
    1.5714    8.5638   -0.6879 C   0  0  0  0  0  3  0  0  0  0  0  0
    0.4275    8.5868    0.0968 O   0  0  0  0  0  0  0  0  0  0  0  0
    0.4188    7.4169    0.8613 C   0  0  0  0  0  3  0  0  0  0  0  0
    1.0322    6.3275    0.0428 C   0  0  0  0  0  3  0  0  0  0  0  0
   -0.0256    5.2571   -0.2391 C   0  0  0  0  0  3  0  0  0  0  0  0
   -1.2784    5.6599    0.1953 O   0  0  0  0  0  0  0  0  0  0  0  0
   -2.0062    4.6402    0.6000 O   0  0  0  0  0  0  0  0  0  0  0  0
   -1.2554    3.4714    0.5858 C   0  0  2  0  0  0  0  0  0  0  0  0
   -0.9885    2.9638   -0.7938 C   0  0  0  0  0  0  0  0  0  0  0  0
   -1.7432    2.4325    1.5422 C   0  0  0  0  0  3  0  0  0  0  0  0
   -2.9778    1.9082    1.2339 O   0  0  0  0  0  0  0  0  0  0  0  0
   -2.8130    1.0293    0.1645 C   0  0  2  0  0  0  0  0  0  0  0  0
   -3.4094    1.5608   -0.9894 N   0  0  0  0  0  0  0  0  0  0  0  0
   -4.6897    1.0848   -1.3500 C   0  0  2  0  0  0  0  0  0  0  0  0
   -4.9105    1.2186   -2.7366 O   0  0  0  0  0  0  0  0  0  0  0  0
   -5.8424    1.6986   -0.6340 C   0  0  2  0  0  0  0  0  0  0  0  0
   -5.5492    2.0307    0.6724 O   0  0  0  0  0  0  0  0  0  0  0  0
   -6.6073    2.5980    1.3424 C   0  0  0  0  0  0  0  0  0  0  0  0
   -7.7519    1.6091    1.3589 C   0  0  0  0  0  3  0  0  0  0  0  0
   -8.9070    2.2428    2.0956 C   0  0  0  0  0  3  0  0  0  0  0  0
   -9.8076    1.1261    2.5667 C   0  0  0  0  0  3  0  0  0  0  0  0
   -8.9988    0.0253    3.2327 C   0  0  0  0  0  2  0  0  0  0  0  0
   -1.5609   -3.1193   -1.3384 N   0  0  0  0  0  0  0  0  0  0  0  0
   -2.1179   -1.7866   -1.2155 C   0  0  0  0  0  3  0  0  0  0  0  0
   -1.9705   -1.2735    0.1984 C   0  0  0  0  0  0  0  0  0  0  0  0
   -3.1179   -0.3489    0.5496 C   0  0  0  0  0  0  0  0  0  0  0  0
   -4.3806   -0.9356    0.0457 C   0  0  0  0  0  3  0  0  0  0  0  0
   -5.2751   -1.0213    1.1378 O   0  0  0  0  0  0  0  0  0  0  0  0
   -6.2028   -2.0229    0.9778 C   0  0  0  0  0  3  0  0  0  0  0  0
   -7.0843   -1.7404   -0.2018 C   0  0  1  0  0  0  0  0  0  0  0  0
   -8.5117   -1.4740    0.1466 C   0  0  0  0  0  0  0  0  0  0  0  0
   -6.4794   -0.6830   -1.0661 C   0  0  0  0  0  3  0  0  0  0  0  0
   -7.0137    0.7172   -0.7376 C   0  0  2  0  0  0  0  0  0  0  0  0
   -7.8074    1.1365   -1.9760 C   0  0  0  0  0  3  0  0  0  0  0  0
   -8.3205    2.5502   -1.8564 C   0  0  0  0  0  3  0  0  0  0  0  0
  -10.0902    2.4967   -1.5025 S   0  0  0  0  0  0  0  0  0  0  0  0
  -10.6128    0.7668   -1.4190 C   0  0  0  0  0  3  0  0  0  0  0  0
  -12.0950    0.6489   -1.1234 C   0  0  0  0  0  3  0  0  0  0  0  0
  -12.3040   -0.3224    0.0148 C   0  0  0  0  0  3  0  0  0  0  0  0
  -12.7041   -1.9612   -0.6913 S   0  0  0  0  0  0  0  0  0  0  0  0
  -12.9570   -3.1323    0.6699 C   0  0  0  0  0  2  0  0  0  0  0  0
  1  2  1  0
  2  3  1  0
  3  4  1  0
  5  4  1  6
  5  6  1  0
  6  7  1  0
  7  8  1  0
  8  9  1  0
  9 10  1  0
 10 11  1  0
 11 12  1  0
 11 13  1  0
 13 14  1  0
 11 15  1  0
 15 16  1  0
 16 17  1  0
 17 18  1  0
 18 19  1  1
 18 20  1  0
 20 21  1  0
 21 22  1  0
 22 23  1  0
 23 24  1  0
 24 25  1  0
 25 26  1  0
 26 27  1  0
 27 28  1  0
 28 29  1  0
 29 30  1  0
 30 31  1  0
 31 32  1  0
 32 33  1  0
 33 34  1  0
 34 35  1  0
 35 36  1  0
 36 37  1  0
 37 38  1  0
 38 39  1  0
 39 40  1  0
 40 41  1  0
 41 42  1  0
 42 43  1  0
 43 44  1  0
 44 45  1  0
 45 46  1  0
 46 47  1  0
 47 48  1  0
 48 49  1  6
 48 50  1  0
 50 51  1  0
 51 52  1  0
 52 53  1  6
 53 54  1  0
 54 55  1  6
 54 56  1  0
 56 57  1  1
 57 58  1  0
 58 59  1  0
 59 60  1  0
 60 61  1  0
 61 62  1  0
  5 63  1  0
 63 64  1  0
 64 65  1  0
 65 66  1  0
 66 67  1  0
 67 68  1  0
 68 69  1  0
 69 70  1  0
 70 71  1  1
 70 72  1  0
 72 73  1  0
 73 74  1  6
 74 75  1  0
 75 76  1  0
 76 77  1  0
 77 78  1  0
 78 79  1  0
 79 80  1  0
 80 81  1  0
 66 52  1  0
 73 56  1  0
M  RAD  8   3   2   7   2   8   2   9   2  12   3  20   2  22   2  23   2
M  RAD  8  25   2  27   2  31   2  32   2  34   2  35   2  36   2  38   2
M  RAD  8  40   2  41   2  43   2  44   2  45   2  50   2  59   2  60   2
M  RAD  8  61   2  62   3  64   2  67   2  69   2  72   2  74   2  75   2
M  RAD  4  77   2  78   2  79   2  81   3
M  END
$$$$
