
     RDKit          3D

  7  6  0  0  0  0  0  0  0  0999 V2000
    2.7095    1.1122   -1.2989 N   0  0  0  0  0  3  0  0  0  0  0  0
    2.1902    0.2828   -0.6968 C   0  0  0  0  0  0  0  0  0  0  0  0
    1.5588   -0.7421    0.0569 C   0  0  0  0  0  0  0  0  0  0  0  0
   -0.0544   -1.0279    0.0278 S   0  0  0  0  0  0  0  0  0  0  0  0
   -1.0649    0.0576   -1.0500 C   0  0  0  0  0  0  0  0  0  0  0  0
   -2.2325    0.6497   -0.3264 C   0  0  0  0  0  0  0  0  0  0  0  0
   -3.1066   -0.3323    0.1798 O   0  0  0  0  0  1  0  0  0  0  0  0
  1  2  3  0
  2  3  1  0
  3  4  2  3
  4  5  1  0
  5  6  1  0
  6  7  1  0
M  CHG  2   1   1   7  -1
M  RAD  1   1   2
M  END
$$$$
