
     RDKit          3D

 14 15  0  0  0  0  0  0  0  0999 V2000
   -0.9302   -0.6379    0.0390 C   0  0  0  0  0  0  0  0  0  0  0  0
   -1.2753    0.8455   -0.1406 C   0  0  0  0  0  3  0  0  0  0  0  0
   -2.7407    0.9488    0.2637 C   0  0  0  0  0  0  0  0  0  0  0  0
   -3.3025   -0.4519    0.1815 C   0  0  2  0  0  0  0  0  0  0  0  0
   -3.3857   -0.9370    1.4974 O   0  0  0  0  0  0  0  0  0  0  0  0
   -2.2411   -1.2464   -0.5062 C   0  0  1  0  0  0  0  0  0  0  0  0
   -2.0798   -0.8817   -1.9742 C   0  0  0  0  0  0  0  0  0  0  0  0
   -0.7340   -0.6016   -2.1835 O   0  0  0  0  0  0  0  0  0  0  0  0
   -0.0376   -1.1066   -1.1107 C   0  0  1  0  0  0  0  0  0  0  0  0
    1.6541   -0.5867   -0.9729 S   0  0  0  0  0  0  0  0  0  0  0  0
    2.3816   -1.4304    0.4829 C   0  0  0  0  0  3  0  0  0  0  0  0
    3.8285   -1.0603    0.6746 C   0  0  0  0  0  0  0  0  0  0  0  0
    3.8761    0.1465    1.5617 C   0  0  0  0  0  0  0  0  0  0  0  0
    4.9865    0.4818    2.1873 C   0  0  0  0  0  3  0  0  0  0  0  0
  1  2  1  0
  2  3  1  0
  3  4  1  0
  4  5  1  1
  4  6  1  0
  6  7  1  6
  7  8  1  0
  8  9  1  0
  9 10  1  1
 10 11  1  0
 11 12  1  0
 12 13  1  0
 13 14  2  0
  6  1  1  0
  9  1  1  0
M  RAD  3   2   2  11   2  14   2
M  END
$$$$
