
     RDKit          3D

 25 24  0  0  0  0  0  0  0  0999 V2000
    6.9855    0.5468   -1.3128 C   0  0  0  0  0  0  0  0  0  0  0  0
    6.4919    0.5814    0.1254 C   0  0  0  0  0  0  0  0  0  0  0  0
    5.1160    0.3708    0.1100 O   0  0  0  0  0  0  0  0  0  0  0  0
    4.8359   -0.8568   -0.4584 C   0  0  0  0  0  0  0  0  0  0  0  0
    3.3473   -1.0523   -0.4596 C   0  0  0  0  0  0  0  0  0  0  0  0
    2.8119   -1.0150    0.9571 C   0  0  0  0  0  0  0  0  0  0  0  0
    2.6154   -0.0602   -1.3097 C   0  0  0  0  0  0  0  0  0  0  0  0
    1.1464   -0.3346   -1.2473 C   0  0  0  0  0  0  0  0  0  0  0  0
    0.6585   -0.2202    0.1827 C   0  0  1  0  0  0  0  0  0  0  0  0
    1.0171    1.5152    0.7499 P   0  0  0  0  0  0  0  0  0  0  0  0
   -0.4608    2.5419    0.2867 C   0  0  0  0  0  0  0  0  0  0  0  0
   -0.3131    3.9671    0.7096 C   0  0  0  0  0  0  0  0  0  0  0  0
   -1.5327    4.7089    0.3013 C   0  0  0  0  0  0  0  0  0  0  0  0
   -2.5338    4.0975   -0.3347 C   0  0  0  0  0  0  0  0  0  0  0  0
   -3.7166    4.8156   -0.7310 C   0  0  0  0  0  0  0  0  0  0  0  0
   -4.6720    4.1181   -1.3660 C   0  0  0  0  0  0  0  0  0  0  0  0
   -0.8244   -0.4387    0.2863 C   0  0  0  0  0  0  0  0  0  0  0  0
   -1.2124   -1.7928   -0.2055 C   0  0  0  0  0  0  0  0  0  0  0  0
   -0.5403   -2.8842    0.5885 C   0  0  0  0  0  0  0  0  0  0  0  0
   -0.8729   -4.2647    0.1632 C   0  0  0  0  0  0  0  0  0  0  0  0
   -2.2550   -4.6458    0.2685 C   0  0  0  0  0  0  0  0  0  0  0  0
   -3.3318   -4.1083    0.6803 C   0  0  0  0  0  0  0  0  0  0  0  0
   -3.4807   -2.7608    1.2400 C   0  0  0  0  0  0  0  0  0  0  0  0
   -4.4863   -1.9815    0.4416 C   0  0  0  0  0  0  0  0  0  0  0  0
   -4.7929   -0.8475    0.6913 O   0  0  0  0  0  0  0  0  0  0  0  0
  1  2  1  0
  2  3  1  0
  3  4  1  0
  4  5  1  0
  5  6  1  0
  5  7  1  0
  7  8  1  0
  9  8  1  6
  9 10  1  0
 10 11  1  0
 11 12  1  0
 12 13  1  0
 13 14  2  3
 14 15  1  0
 15 16  2  0
  9 17  1  0
 17 18  1  0
 18 19  1  0
 19 20  1  0
 20 21  1  0
 21 22  2  3
 22 23  1  0
 23 24  1  0
 24 25  2  0
M  END
$$$$
