
     RDKit          3D

 40 39  0  0  0  0  0  0  0  0999 V2000
   12.8693   -0.8217    1.3124 N   0  0  0  0  0  0  0  0  0  0  0  0
   12.3603    0.2866    0.9560 C   0  0  0  0  0  0  0  0  0  0  0  0
   13.2733    1.4488    0.7126 C   0  0  0  0  0  0  0  0  0  0  0  0
   10.9018    0.5132    0.7613 C   0  0  0  0  0  0  0  0  0  0  0  0
   10.1528   -0.7779    1.0556 C   0  0  0  0  0  0  0  0  0  0  0  0
    8.6711   -0.6146    0.8766 C   0  0  0  0  0  0  0  0  0  0  0  0
    7.9681   -1.8993    1.1732 C   0  0  0  0  0  0  0  0  0  0  0  0
    6.4852   -1.8258    1.0192 C   0  0  0  0  0  0  0  0  0  0  0  0
    5.8505   -0.8014    1.9343 C   0  0  0  0  0  0  0  0  0  0  0  0
    6.4151    0.5499    1.6231 C   0  0  0  0  0  0  0  0  0  0  0  0
    6.1819    1.0062    0.2206 C   0  0  0  0  0  0  0  0  0  0  0  0
    4.7064    1.0904   -0.0880 C   0  0  0  0  0  0  0  0  0  0  0  0
    4.0996    2.0862    0.8825 C   0  0  0  0  0  0  0  0  0  0  0  0
    2.6076    2.2297    0.6370 C   0  0  0  0  0  0  0  0  0  0  0  0
    1.9319    0.8726    0.8288 C   0  0  0  0  0  0  0  0  0  0  0  0
    2.5023   -0.1046   -0.1326 C   0  0  0  0  0  0  0  0  0  0  0  0
    1.7021   -0.6817   -1.0071 C   0  0  0  0  0  0  0  0  0  0  0  0
    0.2537   -0.3628   -1.0339 C   0  0  0  0  0  0  0  0  0  0  0  0
   -0.5036   -1.6715   -0.7761 C   0  0  0  0  0  0  0  0  0  0  0  0
   -0.1267   -2.6153   -1.8648 C   0  0  0  0  0  0  0  0  0  0  0  0
   -0.5580   -2.1367   -3.2065 C   0  0  0  0  0  0  0  0  0  0  0  0
   -2.0062   -2.0261   -3.3720 C   0  0  0  0  0  0  0  0  0  0  0  0
   -2.7745   -1.0853   -2.5346 C   0  0  0  0  0  0  0  0  0  0  0  0
   -2.4272    0.3700   -2.7197 C   0  0  0  0  0  0  0  0  0  0  0  0
   -3.2759    1.2035   -1.8158 C   0  0  0  0  0  0  0  0  0  0  0  0
   -4.7265    1.0928   -2.0298 C   0  0  0  0  0  0  0  0  0  0  0  0
   -5.3306   -0.1675   -1.8810 N   0  0  0  0  0  0  0  0  0  0  0  0
   -5.5418    2.3063   -1.8056 C   0  0  0  0  0  0  0  0  0  0  0  0
   -5.4029    2.7859   -0.4231 C   0  0  0  0  0  0  0  0  0  0  0  0
   -4.9518    3.9580   -0.2086 N   0  0  0  0  0  0  0  0  0  0  0  0
   -5.7761    1.9352    0.7194 C   0  0  0  0  0  0  0  0  0  0  0  0
   -4.9056    0.7012    0.7126 C   0  0  0  0  0  0  0  0  0  0  0  0
   -5.2511   -0.1896    1.8556 C   0  0  0  0  0  0  0  0  0  0  0  0
   -6.5181   -0.4975    2.0373 C   0  0  0  0  0  0  0  0  0  0  0  0
   -7.7661   -0.5750    2.3079 N   0  0  0  0  0  0  0  0  0  0  0  0
   -8.7008   -0.4542    1.2144 C   0  0  0  0  0  0  0  0  0  0  0  0
  -10.0776   -0.5345    1.7913 C   0  0  0  0  0  0  0  0  0  0  0  0
  -11.0928   -0.8895    1.0844 N   0  0  0  0  0  0  0  0  0  0  0  0
  -10.8777   -1.2151   -0.2996 C   0  0  0  0  0  0  0  0  0  0  0  0
  -10.3415   -2.4886   -0.4509 O   0  0  0  0  0  1  0  0  0  0  0  0
  1  2  2  0
  2  3  1  0
  2  4  1  0
  4  5  1  0
  5  6  1  0
  6  7  1  0
  7  8  1  0
  8  9  1  0
  9 10  1  0
 10 11  1  0
 11 12  1  0
 12 13  1  0
 13 14  1  0
 14 15  1  0
 15 16  1  0
 16 17  2  3
 17 18  1  0
 18 19  1  0
 19 20  1  0
 20 21  1  0
 21 22  1  0
 22 23  1  0
 23 24  1  0
 24 25  1  0
 25 26  1  0
 26 27  1  0
 26 28  1  0
 28 29  1  0
 29 30  2  0
 29 31  1  0
 31 32  1  0
 32 33  1  0
 33 34  2  0
 34 35  2  0
 35 36  1  0
 36 37  1  0
 37 38  2  3
 38 39  1  0
 39 40  1  0
M  CHG  1  40  -1
M  END
$$$$
