
     RDKit          3D

 11 11  0  0  0  0  0  0  0  0999 V2000
   -1.5079   -0.5401    0.4793 O   0  0  0  0  0  0  0  0  0  0  0  0
   -1.7533    0.8079    0.7742 C   0  0  0  0  0  0  0  0  0  0  0  0
   -0.9591    1.7217   -0.1206 C   0  0  0  0  0  3  0  0  0  0  0  0
    0.3715    1.9829    0.3729 N   0  0  0  0  0  0  0  0  0  0  0  0
    0.9679    0.8497    1.0336 C   0  0  0  0  0  3  0  0  0  0  0  0
    1.6017   -0.1282    0.0875 C   0  0  2  0  0  0  0  0  0  0  0  0
    2.1708    0.4737   -1.0168 O   0  0  0  0  0  0  0  0  0  0  0  0
    0.6220   -1.2134   -0.2441 C   0  0  1  0  0  0  0  0  0  0  0  0
    0.4437   -2.0279    0.8846 O   0  0  0  0  0  0  0  0  0  0  0  0
   -0.6837   -0.5756   -0.6327 C   0  0  1  0  0  0  0  0  0  0  0  0
   -1.2735   -1.3508   -1.6178 O   0  0  0  0  0  0  0  0  0  0  0  0
  1  2  1  0
  2  3  1  0
  3  4  1  0
  4  5  1  0
  5  6  1  0
  6  7  1  6
  6  8  1  0
  8  9  1  1
  8 10  1  0
 10 11  1  6
 10  1  1  0
M  RAD  2   3   2   5   2
M  END
$$$$
