
     RDKit          2D

 22 24  0  0  0  0  0  0  0  0999 V2000
    6.5893    3.7653    0.0000 C   0  0  0  0  0  0  0  0  0  0  0  0
    5.2035    4.3393    0.0000 O   0  0  0  0  0  0  0  0  0  0  0  0
    4.0135    3.4262    0.0000 C   0  0  0  0  0  0  0  0  0  0  0  0
    2.6277    4.0002    0.0000 C   0  0  0  0  0  0  0  0  0  0  0  0
    1.4376    3.0870    0.0000 C   0  0  0  0  0  0  0  0  0  0  0  0
    0.0518    3.6611    0.0000 C   0  0  0  0  0  0  0  0  0  0  0  0
   -1.1382    2.7479    0.0000 C   0  0  0  0  0  0  0  0  0  0  0  0
   -2.4373    3.4979    0.0000 C   0  0  0  0  0  0  0  0  0  0  0  0
   -2.2415    4.9851    0.0000 C   0  0  0  0  0  0  0  0  0  0  0  0
   -3.8862    3.1097    0.0000 C   0  0  0  0  0  0  0  0  0  0  0  0
   -4.6362    1.8107    0.0000 C   0  0  0  0  0  0  0  0  0  0  0  0
   -4.2479    0.3618    0.0000 C   0  0  0  0  0  0  0  0  0  0  0  0
   -2.9489   -0.3882    0.0000 C   0  0  0  0  0  0  0  0  0  0  0  0
   -1.9814   -1.5345    0.0000 C   0  0  0  0  0  0  0  0  0  0  0  0
    0.7500   -1.2990    0.0000 C   0  0  0  0  0  0  0  0  0  0  0  0
    1.5000    0.0000    0.0000 C   0  0  0  0  0  0  0  0  0  0  0  0
    0.7500    1.2990    0.0000 C   0  0  0  0  0  0  0  0  0  0  0  0
   -0.7500    1.2990    0.0000 C   0  0  0  0  0  0  0  0  0  0  0  0
   -1.5000    0.0000    0.0000 C   0  0  0  0  0  0  0  0  0  0  0  0
   -0.7500   -1.2990    0.0000 C   0  0  0  0  0  0  0  0  0  0  0  0
   -1.5000   -2.5981    0.0000 C   0  0  0  0  0  0  0  0  0  0  0  0
   -0.7500   -3.8971    0.0000 C   0  0  0  0  0  0  0  0  0  0  0  0
  1  2  1  0
  2  3  1  0
  3  4  2  3
  4  5  1  0
  5  6  2  3
  6  7  1  0
  7  8  2  3
  8  9  1  0
  8 10  1  0
 10 11  2  3
 11 12  1  0
 12 13  2  3
 13 14  1  0
 14 15  2  0
 15 16  1  0
 16 17  2  0
 17 18  1  0
 18 19  2  0
 19 20  1  0
 20 21  1  0
 21 22  1  0
 18  7  1  0
 19 13  1  0
 20 15  1  0
M  END
$$$$
