
     RDKit          3D

 18 18  0  0  0  0  0  0  0  0999 V2000
   -3.8483   -2.7771   -0.0841 I   0  0  0  0  0  0  0  0  0  0  0  0
   -2.2183   -2.3174   -1.2576 O   0  0  0  0  0  0  0  0  0  0  0  0
   -1.3212   -1.3695   -0.7919 C   0  0  0  0  0  0  0  0  0  0  0  0
   -1.6130   -0.5443    0.1498 N   0  0  0  0  0  4  0  0  0  0  0  0
   -0.6362    0.4045    0.5763 C   0  0  0  0  0  0  0  0  0  0  0  0
    0.6615    0.3400   -0.1673 C   0  0  0  0  0  3  0  0  0  0  0  0
    1.5441    1.3551    0.4249 N   0  0  0  0  0  0  0  0  0  0  0  0
    2.4439    0.7662    1.2551 O   0  0  0  0  0  0  0  0  0  0  0  0
    3.9243    1.6618    1.1165 P   0  0  0  0  0  0  0  0  0  0  0  0
    5.0400    0.7607   -0.0236 C   0  0  0  0  0  0  0  0  0  0  0  0
    4.5187   -0.0602   -0.9212 C   0  0  0  0  0  0  0  0  0  0  0  0
    3.1658   -0.2412   -1.0044 O   0  0  0  0  0  0  0  0  0  0  0  0
    2.4823   -1.2232   -0.3283 N   0  0  0  0  0  0  0  0  0  0  0  0
    1.2894   -0.9772    0.0826 C   0  0  0  0  0  0  0  0  0  0  0  0
   -2.9112   -0.5801    0.7672 C   0  0  0  0  0  0  0  0  0  0  0  0
   -3.6588    0.6603    0.4050 C   0  0  0  0  0  0  0  0  0  0  0  0
   -4.0964    1.5250    1.2890 C   0  0  0  0  0  0  0  0  0  0  0  0
   -4.7665    2.6167    0.8010 F   0  0  0  0  0  0  0  0  0  0  0  0
  1  2  1  0
  2  3  1  0
  3  4  2  3
  4  5  1  0
  5  6  1  0
  6  7  1  0
  7  8  1  0
  8  9  1  0
  9 10  1  0
 10 11  2  3
 11 12  1  0
 12 13  1  0
 13 14  2  3
  4 15  1  0
 15 16  1  0
 16 17  2  3
 17 18  1  0
 14  6  1  0
M  CHG  1   4   1
M  RAD  1   6   2
M  END
$$$$
