
     RDKit          3D

 61 61  0  0  0  0  0  0  0  0999 V2000
   -5.3893    0.0683    1.4765 C   0  0  0  0  0  0  0  0  0  0  0  0
   -6.4937   -0.9397    1.2774 C   0  0  0  0  0  0  0  0  0  0  0  0
   -7.5281   -0.7144    2.3506 C   0  0  0  0  0  0  0  0  0  0  0  0
   -7.1702   -0.8088   -0.0629 C   0  0  0  0  0  0  0  0  0  0  0  0
   -6.2090   -0.8368   -1.2104 C   0  0  0  0  0  0  0  0  0  0  0  0
   -5.9696   -2.2110   -1.7559 C   0  0  0  0  0  0  0  0  0  0  0  0
   -4.9864   -2.9942   -0.9160 C   0  0  1  0  0  0  0  0  0  0  0  0
   -5.7650   -4.0085   -0.1104 C   0  0  0  0  0  0  0  0  0  0  0  0
   -3.9596   -3.7156   -1.7487 C   0  0  2  0  0  0  0  0  0  0  0  0
   -4.4884   -4.0414   -3.1312 C   0  0  0  0  0  2  0  0  0  0  0  0
   -3.5088   -4.9947   -1.0989 C   0  0  0  0  0  0  0  0  0  0  0  0
   -3.3036   -4.7959    0.3875 C   0  0  0  0  0  0  0  0  0  0  0  0
   -2.8375   -3.3908    0.6449 C   0  0  0  0  0  3  0  0  0  0  0  0
   -1.3179   -3.4049    0.8109 C   0  0  0  0  0  0  0  0  0  0  0  0
   -0.6802   -2.4421   -0.1369 C   0  0  0  0  0  0  0  0  0  0  0  0
   -0.6536   -2.9544   -1.5611 C   0  0  0  0  0  0  0  0  0  0  0  0
    0.6223   -1.8839    0.3024 C   0  0  1  0  0  0  0  0  0  0  0  0
    1.7565   -2.1597   -0.6423 C   0  0  0  0  0  3  0  0  0  0  0  0
    2.0247   -3.6170   -0.8376 C   0  0  0  0  0  0  0  0  0  0  0  0
    2.9554   -4.0901    0.0888 O   0  0  0  0  0  0  0  0  0  0  0  0
    3.1771   -5.4323   -0.1245 C   0  0  0  0  0  0  0  0  0  0  0  0
    1.8558   -6.1744    0.0444 C   0  0  1  0  0  0  0  0  0  0  0  0
    2.0993   -7.6628   -0.1250 C   0  0  0  0  0  2  0  0  0  0  0  0
    1.4339   -5.9256    1.3535 O   0  0  0  0  0  0  0  0  0  0  0  0
    2.3949   -6.4019    2.2334 C   0  0  0  0  0  0  0  0  0  0  0  0
    0.5535   -0.4942    0.7992 C   0  0  1  0  0  0  0  0  0  0  0  0
    1.7430    0.3576    0.4744 C   0  0  0  0  0  3  0  0  0  0  0  0
    3.0298   -0.1487    1.0065 C   0  0  0  0  0  3  0  0  0  0  0  0
    4.1044    0.8551    1.1932 C   0  0  0  0  0  3  0  0  0  0  0  0
    3.6263    2.2943    1.2558 C   0  0  1  0  0  0  0  0  0  0  0  0
    2.6543    2.4524    2.4343 C   0  0  0  0  0  2  0  0  0  0  0  0
    4.8178    3.0661    1.6450 N   0  0  0  0  0  0  0  0  0  0  0  0
    5.8531    2.9655    0.6669 C   0  0  1  0  0  0  0  0  0  0  0  0
    5.4229    3.5426   -0.6428 C   0  0  0  0  0  2  0  0  0  0  0  0
    7.1124    3.5824    1.2059 C   0  0  0  0  0  3  0  0  0  0  0  0
    8.2839    3.3871    0.2533 C   0  0  0  0  0  3  0  0  0  0  0  0
    9.4920    4.1237    0.7688 C   0  0  0  0  0  0  0  0  0  0  0  0
   10.6330    3.8871   -0.2204 C   0  0  0  0  0  3  0  0  0  0  0  0
   10.8851    2.4014   -0.2770 C   0  0  0  0  0  3  0  0  0  0  0  0
   11.4102    1.9669   -1.6374 C   0  0  1  0  0  0  0  0  0  0  0  0
   11.6445    0.4758   -1.6413 C   0  0  1  0  0  0  0  0  0  0  0  0
   12.6567    0.1365   -0.5786 C   0  0  0  0  0  2  0  0  0  0  0  0
   10.4147   -0.2597   -1.3394 N   0  0  0  0  0  0  0  0  0  0  0  0
   10.3652    2.2832   -2.6712 C   0  0  0  0  0  3  0  0  0  0  0  0
   10.0753    3.7828   -2.6938 C   0  0  0  0  0  0  0  0  0  0  0  0
   -0.7071    0.1658    0.2847 C   0  0  0  0  0  3  0  0  0  0  0  0
   -0.4408    0.8419   -1.0292 C   0  0  0  0  0  3  0  0  0  0  0  0
   -1.7089    1.0517   -1.8325 C   0  0  0  0  0  3  0  0  0  0  0  0
   -2.8602    0.2625   -1.2227 C   0  0  0  0  0  3  0  0  0  0  0  0
   -2.9885    0.5287    0.1955 N   0  0  0  0  0  0  0  0  0  0  0  0
   -3.9207    1.6361    0.3308 C   0  0  0  0  0  3  0  0  0  0  0  0
   -5.3617    1.1121    0.3855 C   0  0  2  0  0  0  0  0  0  0  0  0
   -6.2261    2.3130    0.7515 C   0  0  0  0  0  3  0  0  0  0  0  0
   -7.6529    1.8994    0.9593 C   0  0  0  0  0  3  0  0  0  0  0  0
   -8.4285    3.0055    1.5975 C   0  0  0  0  0  3  0  0  0  0  0  0
   -9.1984    3.7418    0.5277 C   0  0  0  0  0  3  0  0  0  0  0  0
   -8.9861    5.2312    0.6501 C   0  0  1  0  0  0  0  0  0  0  0  0
   -7.5142    5.5424    0.4975 C   0  0  0  0  0  2  0  0  0  0  0  0
   -9.7335    5.9246   -0.3566 N   0  0  0  0  0  0  0  0  0  0  0  0
   -9.2588    5.5427   -1.6891 C   0  0  0  0  0  3  0  0  0  0  0  0
   -7.8505    6.0749   -1.8856 C   0  0  0  0  0  2  0  0  0  0  0  0
  1  2  1  0
  2  3  1  0
  2  4  1  0
  4  5  1  0
  5  6  1  0
  6  7  1  0
  7  8  1  6
  7  9  1  0
  9 10  1  6
  9 11  1  0
 11 12  1  0
 12 13  1  0
 13 14  1  0
 14 15  1  0
 15 16  1  0
 15 17  1  0
 17 18  1  6
 18 19  1  0
 19 20  1  0
 20 21  1  0
 21 22  1  0
 22 23  1  1
 22 24  1  0
 24 25  1  0
 17 26  1  0
 26 27  1  6
 27 28  1  0
 28 29  1  0
 29 30  1  0
 30 31  1  1
 30 32  1  0
 32 33  1  0
 33 34  1  6
 33 35  1  0
 35 36  1  0
 36 37  1  0
 37 38  1  0
 38 39  1  0
 40 39  1  1
 40 41  1  0
 41 42  1  1
 41 43  1  0
 40 44  1  0
 44 45  1  0
 26 46  1  0
 46 47  1  0
 47 48  1  0
 48 49  1  0
 49 50  1  0
 50 51  1  0
 51 52  1  0
 52 53  1  1
 53 54  1  0
 54 55  1  0
 55 56  1  0
 56 57  1  0
 57 58  1  6
 57 59  1  0
 59 60  1  0
 60 61  1  0
 52  1  1  0
M  RAD  8  10   3  13   2  18   2  23   3  27   2  28   2  29   2  31   3
M  RAD  8  34   3  35   2  36   2  38   2  39   2  42   3  44   2  46   2
M  RAD  8  47   2  48   2  49   2  51   2  53   2  54   2  55   2  56   2
M  RAD  3  58   3  60   2  61   3
M  END
$$$$
