
     RDKit          3D

 20 20  0  0  0  0  0  0  0  0999 V2000
   -1.7565   -1.9192    1.0711 O   0  0  0  0  0  0  0  0  0  0  0  0
   -0.6736   -1.6347    1.8722 C   0  0  0  0  0  0  0  0  0  0  0  0
    0.5910   -2.0434    1.1645 C   0  0  0  0  0  3  0  0  0  0  0  0
    1.3628   -0.8461    0.8158 N   0  0  0  0  0  0  0  0  0  0  0  0
    1.5319   -0.8435   -0.6326 C   0  0  2  0  0  0  0  0  0  0  0  0
    2.9667   -0.8251   -1.0521 C   0  0  0  0  0  0  0  0  0  0  0  0
    3.6710    0.2784   -0.6031 O   0  0  0  0  0  0  0  0  0  0  0  0
    3.6941    0.3757    0.7871 C   0  0  0  0  0  3  0  0  0  0  0  0
    4.0652   -0.8187    1.3702 O   0  0  0  0  0  0  0  0  0  0  0  0
    0.7261    0.2750   -1.2534 C   0  0  2  0  0  0  0  0  0  0  0  0
    1.1609    0.4773   -2.5485 O   0  0  0  0  0  0  0  0  0  0  0  0
    0.8531    1.4458   -0.5255 O   0  0  0  0  0  0  0  0  0  0  0  0
   -0.2776    1.7764    0.1950 C   0  0  0  0  0  3  0  0  0  0  0  0
   -1.2636    2.3820   -0.6072 O   0  0  0  0  0  0  0  0  0  0  0  0
   -2.4127    1.5764   -0.5883 C   0  0  1  0  0  0  0  0  0  0  0  0
   -2.1249    0.4684   -1.3837 O   0  0  0  0  0  0  0  0  0  0  0  0
   -2.6368    1.2311    0.7420 O   0  0  0  0  0  0  0  0  0  0  0  0
   -3.0335   -0.1042    0.7952 C   0  0  1  0  0  0  0  0  0  0  0  0
   -4.3699   -0.3091    0.1158 C   0  0  0  0  0  0  0  0  0  0  0  0
   -2.0738   -0.9425    0.2654 O   0  0  0  0  0  0  0  0  0  0  0  0
  1  2  1  0
  2  3  1  0
  3  4  1  0
  4  5  1  0
  5  6  1  1
  6  7  1  0
  7  8  1  0
  8  9  1  0
  5 10  1  0
 10 11  1  6
 10 12  1  0
 12 13  1  0
 13 14  1  0
 14 15  1  0
 15 16  1  6
 15 17  1  0
 17 18  1  0
 18 19  1  6
 18 20  1  0
 20  1  1  0
M  RAD  3   3   2   8   2  13   2
M  END
$$$$
