
     RDKit          3D

 14 14  0  0  0  0  0  0  0  0999 V2000
    4.6023    0.4965    0.5253 N   0  0  0  0  0  0  0  0  0  0  0  0
    3.9901   -0.8629    1.4760 S   0  0  0  0  0  0  0  0  0  0  0  0
    2.6201   -1.6934    0.6502 C   0  0  0  0  0  0  0  0  0  0  0  0
    1.4505   -0.7293    0.5943 C   0  0  2  0  0  0  0  0  0  0  0  0
    0.3195   -1.4541   -0.1027 C   0  0  0  0  0  0  0  0  0  0  0  0
   -0.9500   -1.1558    0.6679 C   0  0  0  0  0  0  0  0  0  0  0  0
    1.7810    0.4790   -0.1022 N   0  0  0  0  0  0  0  0  0  0  0  0
    1.0210    1.5154   -0.6923 C   0  0  0  0  0  0  0  0  0  0  0  0
   -0.2496    1.7674   -0.9751 C   0  0  0  0  0  0  0  0  0  0  0  0
   -1.4490    0.9458   -0.7385 C   0  0  0  0  0  0  0  0  0  0  0  0
   -1.7478   -0.1763   -0.1145 C   0  0  0  0  0  0  0  0  0  0  0  0
   -3.1101   -0.5821   -0.1705 N   0  0  0  0  0  0  0  0  0  0  0  0
   -4.0902    0.0089    0.5986 N   0  0  0  0  0  0  0  0  0  0  0  0
   -4.1879    1.4409    0.4045 C   0  0  0  0  0  0  0  0  0  0  0  0
  1  2  1  0
  2  3  1  0
  4  3  1  6
  4  5  1  0
  5  6  1  0
  4  7  1  0
  7  8  1  0
  8  9  2  3
  9 10  1  0
 10 11  2  3
 11 12  1  0
 12 13  1  0
 13 14  1  0
 11  6  1  0
M  END
$$$$
