
     RDKit          2D

 91 90  0  0  0  0  0  0  0  0999 V2000
    0.0000    0.0000    0.0000 C   0  0  0  0  0  0  0  0  0  0  0  0
    1.2990    0.7500    0.0000 C   0  0  0  0  0  0  0  0  0  0  0  0
    2.5981   -0.0000    0.0000 C   0  0  0  0  0  0  0  0  0  0  0  0
    1.2990    2.2500    0.0000 C   0  0  0  0  0  0  0  0  0  0  0  0
    2.5981    3.0000    0.0000 C   0  0  0  0  0  0  0  0  0  0  0  0
    2.5981    4.5000    0.0000 C   0  0  0  0  0  0  0  0  0  0  0  0
    3.8971    5.2500    0.0000 C   0  0  0  0  0  0  0  0  0  0  0  0
    3.8971    6.7500    0.0000 C   0  0  0  0  0  0  0  0  0  0  0  0
    5.1962    4.5000    0.0000 C   0  0  0  0  0  3  0  0  0  0  0  0
    6.4952    5.2500    0.0000 C   0  0  0  0  0  0  0  0  0  0  0  0
    7.7942    4.5000    0.0000 C   0  0  0  0  0  0  0  0  0  0  0  0
    9.0933    5.2500    0.0000 C   0  0  0  0  0  0  0  0  0  0  0  0
   10.3923    4.5000    0.0000 C   0  0  0  0  0  0  0  0  0  0  0  0
    9.0933    6.7500    0.0000 C   0  0  0  0  0  3  0  0  0  0  0  0
   10.3923    7.5000    0.0000 C   0  0  0  0  0  0  0  0  0  0  0  0
   10.3923    9.0000    0.0000 C   0  0  0  0  0  0  0  0  0  0  0  0
   11.6913    9.7500    0.0000 N   0  0  0  0  0  1  0  0  0  0  0  0
    9.0933    9.7500    0.0000 O   0  0  0  0  0  0  0  0  0  0  0  0
    9.0933   11.2500    0.0000 C   0  0  0  0  0  0  0  0  0  0  0  0
    7.7942   12.0000    0.0000 C   0  0  0  0  0  0  0  0  0  0  0  0
    7.7942   13.5000    0.0000 C   0  0  0  0  0  0  0  0  0  0  0  0
    6.4952   14.2500    0.0000 C   0  0  0  0  0  0  0  0  0  0  0  0
    6.4952   15.7500    0.0000 O   0  0  0  0  0  0  0  0  0  0  0  0
    5.1962   16.5000    0.0000 C   0  0  0  0  0  0  0  0  0  0  0  0
    5.1962   18.0000    0.0000 C   0  0  0  0  0  0  0  0  0  0  0  0
    3.8971   18.7500    0.0000 O   0  0  0  0  0  0  0  0  0  0  0  0
    6.4952   18.7500    0.0000 O   0  0  0  0  0  0  0  0  0  0  0  0
    6.4952   20.2500    0.0000 O   0  0  0  0  0  0  0  0  0  0  0  0
    7.7942   21.0000    0.0000 C   0  0  0  0  0  0  0  0  0  0  0  0
    7.7942   22.5000    0.0000 C   0  0  0  0  0  3  0  0  0  0  0  0
    9.0933   23.2500    0.0000 O   0  0  0  0  0  0  0  0  0  0  0  0
    9.0933   24.7500    0.0000 O   0  0  0  0  0  0  0  0  0  0  0  0
   10.3923   25.5000    0.0000 C   0  0  0  0  0  3  0  0  0  0  0  0
   10.3923   27.0000    0.0000 O   0  0  0  0  0  0  0  0  0  0  0  0
   11.6913   27.7500    0.0000 C   0  0  0  0  0  0  0  0  0  0  0  0
   11.6913   29.2500    0.0000 C   0  0  0  0  0  3  0  0  0  0  0  0
   10.3923   30.0000    0.0000 O   0  0  0  0  0  0  0  0  0  0  0  0
   12.9904   30.0000    0.0000 C   0  0  0  0  0  3  0  0  0  0  0  0
   12.9904   31.5000    0.0000 C   0  0  0  0  0  3  0  0  0  0  0  0
   11.6913   32.2500    0.0000 S   0  0  0  0  0  0  0  0  0  0  0  0
   14.2894   32.2500    0.0000 C   0  0  0  0  0  3  0  0  0  0  0  0
   14.2894   33.7500    0.0000 O   0  0  0  0  0  0  0  0  0  0  0  0
   15.5885   34.5000    0.0000 C   0  0  0  0  0  3  0  0  0  0  0  0
   15.5885   36.0000    0.0000 O   0  0  0  0  0  0  0  0  0  0  0  0
   16.8875   36.7500    0.0000 C   0  0  0  0  0  0  0  0  0  0  0  0
   16.8875   38.2500    0.0000 N   0  0  0  0  0  3  0  0  0  0  0  0
   18.1865   39.0000    0.0000 O   0  0  0  0  0  0  0  0  0  0  0  0
   18.1865   40.5000    0.0000 O   0  0  0  0  0  0  0  0  0  0  0  0
   19.4856   41.2500    0.0000 C   0  0  0  0  0  0  0  0  0  0  0  0
   19.4856   42.7500    0.0000 N   0  0  0  0  0  4  0  0  0  0  0  0
   18.1865   43.5000    0.0000 C   0  0  0  0  0  0  0  0  0  0  0  0
   16.8875   42.7500    0.0000 O   0  0  0  0  0  0  0  0  0  0  0  0
   18.1865   45.0000    0.0000 N   0  0  0  0  0  3  0  0  0  0  0  0
   16.8875   45.7500    0.0000 C   0  0  0  0  0  0  0  0  0  0  0  0
   16.8875   47.2500    0.0000 C   0  0  0  0  0  0  0  0  0  0  0  0
   15.5885   48.0000    0.0000 C   0  0  0  0  0  0  0  0  0  0  0  0
   15.5885   49.5000    0.0000 C   0  0  0  0  0  3  0  0  0  0  0  0
   14.2894   50.2500    0.0000 O   0  0  0  0  0  0  0  0  0  0  0  0
   14.2894   51.7500    0.0000 O   0  0  0  0  0  0  0  0  0  0  0  0
   12.9904   52.5000    0.0000 C   0  0  0  0  0  0  0  0  0  0  0  0
   12.9904   54.0000    0.0000 O   0  0  0  0  0  0  0  0  0  0  0  0
   11.6913   54.7500    0.0000 S   0  0  0  0  0  0  0  0  0  0  0  0
   11.6913   56.2500    0.0000 C   0  0  0  0  0  0  0  0  0  0  0  0
   20.7846   43.5000    0.0000 C   0  0  0  0  0  0  0  0  0  0  0  0
   20.7846   45.0000    0.0000 O   0  0  0  0  0  0  0  0  0  0  0  0
   22.0836   45.7500    0.0000 N   0  0  0  0  0  2  0  0  0  0  0  0
   22.0836   47.2500    0.0000 O   0  0  0  0  0  0  0  0  0  0  0  0
   23.3827   48.0000    0.0000 C   0  0  0  0  0  3  0  0  0  0  0  0
   23.3827   49.5000    0.0000 S   0  0  0  0  0  0  0  0  0  0  0  0
   24.6817   50.2500    0.0000 C   0  0  0  0  0  0  0  0  0  0  0  0
   24.6817   51.7500    0.0000 C   0  0  0  0  0  0  0  0  0  0  0  0
   25.9808   52.5000    0.0000 O   0  0  0  0  0  0  0  0  0  0  0  0
   25.9808   54.0000    0.0000 S   0  0  0  0  0  0  0  0  0  0  0  0
   27.2798   54.7500    0.0000 O   0  0  0  0  0  0  0  0  0  0  0  0
   27.2798   56.2500    0.0000 S   0  0  0  0  0  0  0  0  0  0  0  0
   28.5788   57.0000    0.0000 O   0  0  0  0  0  0  0  0  0  0  0  0
   28.5788   58.5000    0.0000 C   0  0  0  0  0  3  0  0  0  0  0  0
   29.8779   59.2500    0.0000 O   0  0  0  0  0  0  0  0  0  0  0  0
   29.8779   60.7500    0.0000 C   0  0  0  0  0  3  0  0  0  0  0  0
   31.1769   61.5000    0.0000 C   0  0  0  0  0  0  0  0  0  0  0  0
   31.1769   63.0000    0.0000 C   0  0  0  0  0  0  0  0  0  0  0  0
   32.4760   63.7500    0.0000 N   0  0  0  0  0  3  0  0  0  0  0  0
   32.4760   65.2500    0.0000 S   0  0  0  0  0  0  0  0  0  0  0  0
   33.7750   66.0000    0.0000 O   0  0  0  0  0  0  0  0  0  0  0  0
   33.7750   67.5000    0.0000 C   0  0  0  0  0  3  0  0  0  0  0  0
   35.0740   68.2500    0.0000 O   0  0  0  0  0  0  0  0  0  0  0  0
   35.0740   69.7500    0.0000 O   0  0  0  0  0  0  0  0  0  0  0  0
   36.3731   70.5000    0.0000 N   0  0  0  0  0  0  0  0  0  0  0  0
   36.3731   72.0000    0.0000 O   0  0  0  0  0  0  0  0  0  0  0  0
   37.6721   72.7500    0.0000 S   0  0  0  0  0  0  0  0  0  0  0  0
   37.6721   74.2500    0.0000 C   0  0  0  0  0  2  0  0  0  0  0  0
  1  2  1  0
  2  3  1  0
  2  4  1  0
  4  5  1  0
  5  6  1  0
  6  7  1  0
  7  8  1  0
  7  9  1  0
  9 10  1  0
 10 11  1  0
 11 12  1  0
 12 13  1  1
 12 14  1  0
 14 15  1  0
 15 16  1  0
 16 17  1  0
 16 18  1  0
 18 19  1  0
 19 20  1  0
 20 21  1  0
 21 22  1  0
 22 23  1  0
 23 24  1  0
 24 25  1  0
 25 26  1  0
 25 27  1  0
 27 28  1  0
 28 29  1  0
 29 30  1  0
 30 31  1  0
 31 32  1  0
 32 33  1  0
 33 34  1  0
 34 35  1  0
 35 36  1  0
 36 37  1  0
 36 38  1  0
 38 39  1  0
 39 40  1  0
 39 41  1  0
 41 42  1  0
 42 43  1  0
 43 44  1  0
 44 45  1  0
 45 46  2  3
 46 47  1  0
 47 48  1  0
 48 49  1  0
 49 50  2  3
 50 51  1  0
 51 52  1  0
 51 53  2  3
 53 54  1  0
 54 55  1  0
 55 56  1  0
 56 57  1  0
 57 58  1  0
 58 59  1  0
 59 60  1  0
 60 61  1  0
 61 62  1  0
 62 63  1  0
 50 64  1  0
 64 65  1  0
 65 66  1  0
 66 67  1  0
 67 68  1  0
 68 69  1  0
 69 70  1  0
 70 71  1  0
 71 72  1  0
 72 73  1  0
 73 74  1  0
 74 75  1  0
 75 76  1  0
 76 77  1  0
 77 78  1  0
 78 79  1  0
 79 80  1  0
 80 81  1  0
 81 82  2  3
 82 83  1  0
 83 84  1  0
 84 85  1  0
 85 86  1  0
 86 87  1  0
 87 88  1  0
 88 89  1  0
 89 90  1  0
 90 91  1  0
M  RAD  8   9   2  14   2  17   2  30   2  33   2  36   2  38   2  39   2
M  RAD  8  41   2  43   2  46   2  53   2  57   2  66   3  68   2  77   2
M  CHG  6  17   1  46   1  50   1  53   1  66   1  82   1
M  RAD  4  79   2  82   2  85   2  91   3
M  END
$$$$
