
     RDKit          3D

 16 17  0  0  0  0  0  0  0  0999 V2000
   -2.1043   -0.5202    0.4854 N   0  0  0  0  0  0  0  0  0  0  0  0
   -3.2248    0.2167    0.7775 N   0  0  0  0  0  0  0  0  0  0  0  0
   -3.2517    1.6047    0.4944 N   0  0  0  0  0  0  0  0  0  0  0  0
   -2.1972    2.1227   -0.0384 C   0  0  0  0  0  0  0  0  0  0  0  0
   -1.0078    1.3883   -0.3590 C   0  0  0  0  0  0  0  0  0  0  0  0
   -1.0100    0.1200   -0.0868 C   0  0  0  0  0  0  0  0  0  0  0  0
    0.2487    1.8742   -0.9896 C   0  0  0  0  0  0  0  0  0  0  0  0
    1.3312    0.9793   -0.6672 C   0  0  0  0  0  0  0  0  0  0  0  0
    1.6376   -0.2546   -0.7360 C   0  0  0  0  0  0  0  0  0  0  0  0
    3.0128   -0.7405   -0.2186 C   0  0  0  0  0  0  0  0  0  0  0  0
    3.7948    0.4252    0.3115 C   0  0  0  0  0  0  0  0  0  0  0  0
    5.0651   -0.0935    0.7779 N   0  0  0  0  0  0  0  0  0  0  0  0
    0.8592   -1.2804   -1.2570 N   0  0  0  0  0  0  0  0  0  0  0  0
   -0.4581   -1.6163   -1.1467 N   0  0  0  0  0  0  0  0  0  0  0  0
   -0.7105   -2.3343    0.0812 C   0  0  0  0  0  0  0  0  0  0  0  0
   -1.9848   -1.8914    0.7018 N   0  0  0  0  0  0  0  0  0  0  0  0
  1  2  1  0
  2  3  1  0
  3  4  2  0
  4  5  1  0
  5  6  2  0
  5  7  1  0
  7  8  1  0
  8  9  2  3
  9 10  1  0
 10 11  1  0
 11 12  1  0
  9 13  1  0
 13 14  1  0
 14 15  1  0
 15 16  1  0
  6  1  1  0
 16  1  1  0
M  END
$$$$
