
     RDKit          3D

 24 27  0  0  0  0  0  0  0  0999 V2000
    1.0710   -2.2135   -2.0566 C   0  0  0  0  0  0  0  0  0  0  0  0
    1.6193   -2.5140   -0.7665 O   0  0  0  0  0  0  0  0  0  0  0  0
    2.0201   -1.7044    0.1365 C   0  0  0  0  0  0  0  0  0  0  0  0
    2.3567   -0.9010    0.9867 C   0  0  0  0  0  0  0  0  0  0  0  0
    1.7733    0.3181    1.4556 C   0  0  0  0  0  0  0  0  0  0  0  0
    1.5698    1.4613    0.9173 C   0  0  0  0  0  0  0  0  0  0  0  0
    0.9174    2.6189    1.6458 C   0  0  0  0  0  0  0  0  0  0  0  0
   -0.1337    2.0771    2.5449 C   0  0  0  0  0  0  0  0  0  0  0  0
   -1.5228    2.0650    1.8959 C   0  0  0  0  0  0  0  0  0  0  0  0
   -1.6138    0.6572    1.3727 C   0  0  0  0  0  0  0  0  0  0  0  0
   -1.8750   -0.5086    2.1249 C   0  0  0  0  0  0  0  0  0  0  0  0
   -1.7782   -1.6971    1.4826 C   0  0  0  0  0  0  0  0  0  0  0  0
   -1.4347   -1.6791    0.1605 C   0  0  0  0  0  0  0  0  0  0  0  0
   -1.3494   -2.9485   -0.4679 O   0  0  0  0  0  0  0  0  0  0  0  0
   -1.1700   -0.5196   -0.6039 C   0  0  0  0  0  0  0  0  0  0  0  0
   -1.2779    0.6827    0.0576 C   0  0  0  0  0  0  0  0  0  0  0  0
   -1.5223    2.8197    0.6793 N   0  0  0  0  0  0  0  0  0  0  0  0
   -1.2443    2.1008   -0.2804 N   0  0  0  0  0  0  0  0  0  0  0  0
    1.9683    1.7487   -0.4832 C   0  0  0  0  0  0  0  0  0  0  0  0
    1.7541    0.5792   -1.3207 C   0  0  0  0  0  0  0  0  0  0  0  0
    1.0294    0.6280   -2.5566 C   0  0  0  0  0  0  0  0  0  0  0  0
   -0.0854   -0.0113   -2.8505 C   0  0  0  0  0  0  0  0  0  0  0  0
   -0.7801   -0.8777   -1.9745 C   0  0  0  0  0  0  0  0  0  0  0  0
   -0.2914   -2.1819   -2.0994 O   0  0  0  0  0  0  0  0  0  0  0  0
  1  2  1  0
  2  3  1  0
  3  4  2  3
  4  5  1  0
  5  6  2  3
  6  7  1  0
  7  8  1  0
  8  9  1  0
  9 10  1  0
 10 11  2  0
 11 12  1  0
 12 13  2  0
 13 14  1  0
 13 15  1  0
 15 16  2  0
  9 17  1  0
 17 18  2  0
  6 19  1  0
 19 20  1  0
 20 21  1  0
 21 22  2  3
 22 23  1  0
 23 24  1  0
 24  1  1  0
 16 10  1  0
 23 15  1  0
 18 16  1  0
M  END
$$$$
