
     RDKit          3D

 19 18  0  0  0  0  0  0  0  0999 V2000
    7.7452    0.3147    0.1983 N   0  0  0  0  0  0  0  0  0  0  0  0
    6.3069    0.3926    0.2819 C   0  0  0  0  0  0  0  0  0  0  0  0
    5.7251   -0.0463   -1.0684 C   0  0  0  0  0  0  0  0  0  0  0  0
    4.2173    0.0559   -0.9199 C   0  0  0  0  0  0  0  0  0  0  0  0
    3.6996   -0.8227    0.1734 C   0  0  0  0  0  0  0  0  0  0  0  0
    2.1975   -0.6505    0.2413 C   0  0  0  0  0  0  0  0  0  0  0  0
    1.9324    0.8123    0.5365 C   0  0  0  0  0  0  0  0  0  0  0  0
    0.4371    1.0889    0.6250 C   0  0  0  0  0  0  0  0  0  0  0  0
   -0.0827    0.2074    1.7626 C   0  0  0  0  0  0  0  0  0  0  0  0
    0.1937   -1.2116    1.4246 C   0  0  0  0  0  0  0  0  0  0  0  0
   -0.5061   -1.7119    0.2143 C   0  0  0  0  0  0  0  0  0  0  0  0
   -1.9705   -1.7076    0.3666 C   0  0  0  0  0  0  0  0  0  0  0  0
   -2.6510   -0.4198    0.5675 C   0  0  0  0  0  0  0  0  0  0  0  0
   -2.5579    0.5785   -0.5356 C   0  0  0  0  0  0  0  0  0  0  0  0
   -3.1383    0.0309   -1.7728 C   0  0  0  0  0  0  0  0  0  0  0  0
   -4.3288    0.3623   -2.1161 N   0  0  0  0  0  0  0  0  0  0  0  0
   -5.0877    1.2393   -1.3307 C   0  0  0  0  0  0  0  0  0  0  0  0
   -5.7973    0.8912   -0.3023 C   0  0  0  0  0  0  0  0  0  0  0  0
   -6.3346    0.5967    0.7820 O   0  0  0  0  0  0  0  0  0  0  0  0
  1  2  1  0
  2  3  1  0
  3  4  1  0
  4  5  1  0
  5  6  1  0
  6  7  1  0
  7  8  1  0
  8  9  1  0
  9 10  1  0
 10 11  1  0
 11 12  1  0
 12 13  1  0
 13 14  1  0
 14 15  1  0
 15 16  2  3
 16 17  1  0
 17 18  2  0
 18 19  2  0
M  END
$$$$
