
     RDKit          3D

  3  3  0  0  0  0  0  0  0  0999 V2000
   -0.3344    0.6656   -0.0169 N   0  0  0  0  0  3  0  0  0  0  0  0
   -0.4659   -0.6137   -0.0216 C   0  0  0  0  0  0  0  0  0  0  0  0
    0.8003   -0.0519    0.0385 O   0  0  0  0  0  0  0  0  0  0  0  0
  1  2  2  0
  2  3  1  0
  3  1  1  0
M  CHG  1   1   1
M  RAD  1   1   2
M  END
$$$$
