
     RDKit          3D

 17 16  0  0  0  0  0  0  0  0999 V2000
   -4.4570    2.0420    1.3782 O   0  0  0  0  0  0  0  0  0  0  0  0
   -4.6826    1.2302    0.4460 C   0  0  0  0  0  0  0  0  0  0  0  0
   -4.8734    1.7361   -0.8256 O   0  0  0  0  0  0  0  0  0  0  0  0
   -4.7342   -0.2172    0.7445 C   0  0  0  0  0  0  0  0  0  0  0  0
   -3.3415   -0.7798    0.9023 C   0  0  0  0  0  0  0  0  0  0  0  0
   -2.5477   -0.5805   -0.3794 C   0  0  0  0  0  0  0  0  0  0  0  0
   -1.1772   -1.1351   -0.2179 C   0  0  0  0  0  0  0  0  0  0  0  0
   -0.8018   -1.6760    0.8687 O   0  0  0  0  0  0  0  0  0  0  0  0
   -0.2085   -1.0972   -1.2549 N   0  0  0  0  0  0  0  0  0  0  0  0
    1.1292   -1.6362   -1.1025 C   0  0  0  0  0  0  0  0  0  0  0  0
    1.9087   -0.9929   -0.0078 C   0  0  0  0  0  0  0  0  0  0  0  0
    2.1048    0.4799   -0.1855 C   0  0  0  0  0  0  0  0  0  0  0  0
    2.8472    0.8245   -1.4622 C   0  0  0  0  0  0  0  0  0  0  0  0
    4.2195    0.2016   -1.4957 C   0  0  0  0  0  0  0  0  0  0  0  0
    5.0839    0.6650   -0.3466 C   0  0  0  0  0  0  0  0  0  0  0  0
    4.4502    0.2996    0.9741 C   0  0  0  0  0  0  0  0  0  0  0  0
    5.0806    0.6361    1.9641 O   0  0  0  0  0  0  0  0  0  0  0  0
  1  2  2  0
  2  3  1  0
  2  4  1  0
  4  5  1  0
  5  6  1  0
  6  7  1  0
  7  8  2  0
  7  9  1  0
  9 10  1  0
 10 11  1  0
 11 12  1  0
 12 13  1  0
 13 14  1  0
 14 15  1  0
 15 16  1  0
 16 17  2  0
M  END
$$$$
