
     RDKit          3D

 15 15  0  0  0  0  0  0  0  0999 V2000
    0.3667   -2.3936   -0.7928 C   0  0  0  0  0  0  0  0  0  0  0  0
    0.4081   -1.5103    0.4366 C   0  0  0  0  0  0  0  0  0  0  0  0
    1.1830   -0.2663    0.1323 C   0  0  0  0  0  0  0  0  0  0  0  0
    1.9951   -0.5195   -0.9725 O   0  0  0  0  0  0  0  0  0  0  0  0
    2.7554    0.5692   -1.3379 C   0  0  0  0  0  0  0  0  0  0  0  0
    3.6688    1.0357   -0.2773 C   0  0  0  0  0  0  0  0  0  0  0  0
    3.7634    0.5293    0.8211 O   0  0  0  0  0  0  0  0  0  0  0  0
   -0.9376   -1.2145    0.7748 O   0  0  0  0  0  0  0  0  0  0  0  0
   -1.9988   -1.5156   -0.0682 C   0  0  0  0  0  0  0  0  0  0  0  0
   -2.9126   -0.6014   -0.2272 C   0  0  0  0  0  0  0  0  0  0  0  0
   -3.3603   -0.0311    0.8182 N   0  0  0  0  0  3  0  0  0  0  0  0
   -3.0612    1.6948    1.1438 S   0  0  0  0  0  0  0  0  0  0  0  0
   -1.5535    2.0973    0.3820 O   0  0  0  0  0  0  0  0  0  0  0  0
   -0.6538    1.2020    0.8300 N   0  0  0  0  0  0  0  0  0  0  0  0
    0.3374    0.9239   -0.1857 C   0  0  0  0  0  3  0  0  0  0  0  0
  1  2  1  0
  2  3  1  0
  3  4  1  0
  4  5  1  0
  5  6  1  0
  6  7  2  0
  2  8  1  0
  8  9  1  0
  9 10  2  0
 10 11  2  0
 11 12  1  0
 12 13  1  0
 13 14  1  0
 14 15  1  0
 15  3  1  0
M  CHG  1  11   1
M  RAD  2  11   2  15   2
M  END
$$$$
