
     RDKit          3D

  3  2  0  0  0  0  0  0  0  0999 V2000
   -1.2065   -0.0455   -0.0000 O   0  0  0  0  0  0  0  0  0  0  0  0
   -0.0087    0.0899   -0.0000 N   0  0  0  0  0  4  0  0  0  0  0  0
    1.2152   -0.0445    0.0000 N   0  0  0  0  0  2  0  0  0  0  0  0
  1  2  2  0
  2  3  2  0
M  CHG  2   2   1   3  -1
M  END
$$$$
