
     RDKit          3D

 77 79  0  0  0  0  0  0  0  0999 V2000
   14.3703   -2.7061    2.6722 C   0  0  0  0  0  0  0  0  0  0  0  0
   13.1925   -2.3516    3.5264 C   0  0  0  0  0  0  0  0  0  0  0  0
   13.5044   -1.1060    4.3426 C   0  0  0  0  0  0  0  0  0  0  0  0
   11.9902   -2.0642    2.6487 C   0  0  0  0  0  0  0  0  0  0  0  0
   10.7795   -1.7004    3.5049 C   0  0  0  0  0  0  0  0  0  0  0  0
    9.5962   -1.4187    2.6241 C   0  0  0  0  0  0  0  0  0  0  0  0
    9.8738   -0.2556    1.6671 C   0  0  1  0  0  0  0  0  0  0  0  0
   10.1825    0.9791    2.4518 C   0  0  0  0  0  0  0  0  0  0  0  0
   10.9906   -0.5955    0.7545 C   0  0  0  0  0  3  0  0  0  0  0  0
   10.7736   -1.7653   -0.0868 C   0  0  0  0  0  0  0  0  0  0  0  0
    9.7830   -1.7379   -1.1317 C   0  0  0  0  0  0  0  0  0  0  0  0
    8.3695   -1.4999   -0.9265 C   0  0  2  0  0  0  0  0  0  0  0  0
    8.0303   -0.1786   -0.3452 C   0  0  0  0  0  0  0  0  0  0  0  0
    7.7729   -2.6527   -0.1355 C   0  0  0  0  0  0  0  0  0  0  0  0
    6.3081   -2.4220    0.0827 C   0  0  0  0  0  0  0  0  0  0  0  0
    5.7147   -3.5638    0.8709 C   0  0  0  0  0  0  0  0  0  0  0  0
    6.0847   -1.0755    0.6886 C   0  0  0  0  0  0  0  0  0  0  0  0
    4.5965   -0.8412    0.9110 C   0  0  0  0  0  0  0  0  0  0  0  0
    4.4233    0.5297    1.5191 C   0  0  0  0  0  0  0  0  0  0  0  0
    5.1561    0.6134    2.8331 C   0  0  0  0  0  0  0  0  0  0  0  0
    4.7959    1.6146    0.5564 C   0  0  0  0  0  0  0  0  0  0  0  0
    4.6066    2.9436    1.2021 C   0  0  0  0  0  0  0  0  0  0  0  0
    4.9935    4.1246    0.3794 C   0  0  0  0  0  0  0  0  0  0  0  0
    6.3883    4.1153   -0.1477 C   0  0  0  0  0  0  0  0  0  0  0  0
    6.9246    2.8722   -0.3747 O   0  0  0  0  0  0  0  0  0  0  0  0
    6.3068    4.3313   -1.6642 C   0  0  0  0  0  0  0  0  0  0  0  0
    7.3606    3.2527   -1.6373 C   0  0  0  0  0  0  0  0  0  0  0  0
    6.9793    2.2274   -2.6845 C   0  0  0  0  0  0  0  0  0  0  0  0
    5.5023    1.9677   -2.7054 C   0  0  0  0  0  0  0  0  0  0  0  0
    5.0880    0.8637   -1.7550 C   0  0  0  0  0  0  0  0  0  0  0  0
    4.1045    1.4213   -0.7486 C   0  0  0  0  0  0  0  0  0  0  0  0
    3.4942    2.5847   -1.3095 N   0  0  0  0  0  0  0  0  0  0  0  0
    2.4368    3.1381   -0.5086 C   0  0  0  0  0  0  0  0  0  0  0  0
    1.2189    2.2750   -0.4288 C   0  0  0  0  0  3  0  0  0  0  0  0
    1.4254    1.0220   -1.2189 C   0  0  0  0  0  0  0  0  0  0  0  0
    1.7018    1.2985   -2.6694 C   0  0  0  0  0  0  0  0  0  0  0  0
    1.8861    0.1148   -3.3602 O   0  0  0  0  0  0  0  0  0  0  0  0
    0.5409    2.0442   -3.2742 C   0  0  0  0  0  0  0  0  0  0  0  0
    0.3154    3.3760   -2.5580 C   0  0  0  0  0  0  0  0  0  0  0  0
    0.7769    2.3230   -4.7458 C   0  0  0  0  0  0  0  0  0  0  0  0
   -0.7617    1.2834   -3.1623 C   0  0  0  0  0  0  0  0  0  0  0  0
   -0.6895   -0.0488   -3.8629 C   0  0  0  0  0  0  0  0  0  0  0  0
   -1.9918   -0.7746   -3.7360 C   0  0  0  0  0  0  0  0  0  0  0  0
   -3.0853    0.0667   -4.3696 C   0  0  0  0  0  0  0  0  0  0  0  0
   -2.3289   -1.0975   -2.2922 C   0  0  0  0  0  0  0  0  0  0  0  0
   -1.2926   -1.9618   -1.6488 C   0  0  0  0  0  0  0  0  0  0  0  0
   -3.5956   -1.6749   -2.2029 O   0  0  0  0  0  0  0  0  0  0  0  0
   -3.8787   -1.9558   -0.8721 C   0  0  0  0  0  3  0  0  0  0  0  0
   -3.7821   -0.7200   -0.0405 C   0  0  0  0  0  0  0  0  0  0  0  0
   -5.0766    0.0553    0.0689 C   0  0  0  0  0  0  0  0  0  0  0  0
   -5.4983    0.4648   -1.3369 C   0  0  0  0  0  0  0  0  0  0  0  0
   -4.7647    1.2959    0.8807 C   0  0  0  0  0  3  0  0  0  0  0  0
   -5.8006    2.3638    0.7602 C   0  0  0  0  0  0  0  0  0  0  0  0
   -5.6520    3.1934   -0.4909 C   0  0  0  0  0  0  0  0  0  0  0  0
   -6.8363    3.1125   -1.3984 C   0  0  0  0  0  0  0  0  0  0  0  0
   -8.1388    2.9626   -0.6417 C   0  0  0  0  0  0  0  0  0  0  0  0
   -9.2780    2.5810   -1.5288 C   0  0  0  0  0  0  0  0  0  0  0  0
   -8.8853    1.5828   -2.5912 C   0  0  0  0  0  3  0  0  0  0  0  0
   -9.9573    0.5391   -2.8092 C   0  0  0  0  0  0  0  0  0  0  0  0
  -10.0130   -0.4618   -1.6670 C   0  0  0  0  0  3  0  0  0  0  0  0
   -8.6846   -1.2093   -1.5409 C   0  0  0  0  0  0  0  0  0  0  0  0
   -8.4302   -1.3710   -0.0579 C   0  0  0  0  0  2  0  0  0  0  0  0
   -7.5118   -0.3390    0.4930 C   0  0  0  0  0  0  0  0  0  0  0  0
   -8.1209    0.3284    1.6924 C   0  0  0  0  0  0  0  0  0  0  0  0
   -6.1000   -0.8153    0.7167 C   0  0  0  0  0  0  0  0  0  0  0  0
   -5.8855   -2.2410    0.3525 C   0  0  0  0  0  0  0  0  0  0  0  0
   -6.8487   -3.2082    0.9444 C   0  0  0  0  0  3  0  0  0  0  0  0
   -6.8276   -3.2103    2.4386 C   0  0  0  0  0  0  0  0  0  0  0  0
   -7.7934   -4.1830    3.0325 C   0  0  0  0  0  0  0  0  0  0  0  0
   -9.1997   -3.8426    2.6033 C   0  0  0  0  0  0  0  0  0  0  0  0
  -10.2188   -4.7880    3.1705 C   0  0  0  0  0  0  0  0  0  0  0  0
   -9.5854   -2.4481    2.9897 C   0  0  0  0  0  0  0  0  0  0  0  0
  -10.9715   -2.0784    2.5806 C   0  0  0  0  0  0  0  0  0  0  0  0
  -11.3162   -0.6676    2.9880 C   0  0  0  0  0  0  0  0  0  0  0  0
  -12.7126   -0.2847    2.5813 C   0  0  0  0  0  3  0  0  0  0  0  0
  -13.3607   -1.3845    1.9022 N   0  0  0  0  0  0  0  0  0  0  0  0
  -13.4648   -1.1614    0.5778 F   0  0  0  0  0  0  0  0  0  0  0  0
  1  2  1  0
  2  3  1  0
  2  4  1  0
  4  5  1  0
  5  6  1  0
  6  7  1  0
  7  8  1  1
  7  9  1  0
  9 10  1  0
 10 11  1  0
 11 12  1  0
 12 13  1  1
 12 14  1  0
 14 15  1  0
 15 16  1  0
 15 17  1  0
 17 18  1  0
 18 19  1  0
 19 20  1  0
 19 21  1  0
 21 22  1  0
 22 23  1  0
 23 24  1  0
 24 25  1  0
 24 26  1  0
 26 27  1  0
 27 28  1  0
 28 29  1  0
 29 30  1  0
 30 31  1  0
 31 32  1  0
 32 33  1  0
 33 34  1  0
 34 35  1  0
 35 36  1  0
 36 37  1  0
 36 38  1  0
 38 39  1  0
 38 40  1  0
 38 41  1  0
 41 42  1  0
 42 43  1  0
 43 44  1  0
 43 45  1  0
 45 46  1  0
 45 47  1  0
 47 48  1  0
 48 49  1  0
 49 50  1  0
 50 51  1  0
 50 52  1  0
 52 53  1  0
 53 54  1  0
 54 55  1  0
 55 56  1  0
 56 57  1  0
 57 58  1  0
 58 59  1  0
 59 60  1  0
 60 61  1  0
 61 62  1  0
 62 63  1  0
 63 64  1  0
 63 65  1  0
 65 66  1  0
 66 67  1  0
 67 68  1  0
 68 69  1  0
 69 70  1  0
 70 71  1  0
 70 72  1  0
 72 73  1  0
 73 74  1  0
 74 75  1  0
 75 76  1  0
 76 77  1  0
 31 21  1  0
 27 25  1  0
 65 50  1  0
M  RAD  8   9   2  34   2  48   2  52   2  58   2  60   2  62   3  67   2
M  RAD  1  75   2
M  END
$$$$
