
     RDKit          3D

 31 31  0  0  0  0  0  0  0  0999 V2000
   -8.6582   -0.3398   -2.9276 N   0  0  0  0  0  0  0  0  0  0  0  0
   -7.4275   -0.5753   -2.6159 C   0  0  0  0  0  0  0  0  0  0  0  0
   -6.3878   -0.0192   -3.3847 O   0  0  0  0  0  0  0  0  0  0  0  0
   -7.1164   -1.4170   -1.4679 C   0  0  0  0  0  0  0  0  0  0  0  0
   -5.8523   -1.6526   -1.1564 C   0  0  0  0  0  0  0  0  0  0  0  0
   -5.4735   -2.4957   -0.0072 C   0  0  0  0  0  0  0  0  0  0  0  0
   -4.6642   -3.6642   -0.5215 C   0  0  0  0  0  0  0  0  0  0  0  0
   -5.5279   -4.4393   -1.4941 C   0  0  0  0  0  0  0  0  0  0  0  0
   -3.4370   -3.1490   -1.1573 C   0  0  0  0  0  0  0  0  0  0  0  0
   -3.1277   -1.8686   -1.2314 C   0  0  0  0  0  0  0  0  0  0  0  0
   -1.8785   -1.5007   -1.8904 C   0  0  0  0  0  0  0  0  0  0  0  0
   -1.4826   -0.2442   -2.0138 C   0  0  0  0  0  0  0  0  0  0  0  0
   -2.3278    0.8152   -1.4701 C   0  0  0  0  0  0  0  0  0  0  0  0
   -1.8005    1.5901   -0.5570 C   0  0  0  0  0  0  0  0  0  0  0  0
   -1.1808    2.3516    0.3225 C   0  0  0  0  0  0  0  0  0  0  0  0
   -0.7793    1.6945    1.5912 C   0  0  0  0  0  0  0  0  0  0  0  0
    0.6920    1.9588    1.8307 C   0  0  0  0  0  0  0  0  0  0  0  0
    1.4585    1.3778    0.6583 C   0  0  0  0  0  0  0  0  0  0  0  0
    1.0603    1.9931   -0.6519 C   0  0  0  0  0  0  0  0  0  0  0  0
    1.1902   -0.1062    0.6423 C   0  0  0  0  0  0  0  0  0  0  0  0
    1.6436   -0.7404    1.9098 C   0  0  0  0  0  0  0  0  0  0  0  0
    3.0299   -0.6749    2.2264 C   0  0  0  0  0  0  0  0  0  0  0  0
    4.0801   -0.2274    1.6661 C   0  0  0  0  0  0  0  0  0  0  0  0
    4.1325    0.4320    0.3577 C   0  0  0  0  0  0  0  0  0  0  0  0
    4.7662    1.7998    0.5624 C   0  0  0  0  0  0  0  0  0  0  0  0
    6.1605    1.5604    1.1291 C   0  0  0  0  0  0  0  0  0  0  0  0
    6.6040    1.9747    2.2349 N   0  0  0  0  0  0  0  0  0  0  0  0
    7.9517    1.5993    2.5123 C   0  0  0  0  0  0  0  0  0  0  0  0
    8.9382    2.7174    2.2651 C   0  0  0  0  0  0  0  0  0  0  0  0
    8.1963    0.4581    1.5385 C   0  0  0  0  0  0  0  0  0  0  0  0
    7.2182    0.7916    0.4398 C   0  0  0  0  0  0  0  0  0  0  0  0
  1  2  2  0
  2  3  1  0
  2  4  1  0
  4  5  2  3
  5  6  1  0
  6  7  1  0
  7  8  1  0
  7  9  1  0
  9 10  2  3
 10 11  1  0
 11 12  2  3
 12 13  1  0
 13 14  2  0
 14 15  2  0
 15 16  1  0
 16 17  1  0
 17 18  1  0
 18 19  1  0
 18 20  1  0
 20 21  1  0
 21 22  1  0
 22 23  2  3
 23 24  1  0
 24 25  1  0
 25 26  1  0
 26 27  2  0
 27 28  1  0
 28 29  1  0
 28 30  1  0
 30 31  1  0
 31 26  1  0
M  END
$$$$
