
     RDKit          3D

 26 26  0  0  0  0  0  0  0  0999 V2000
    6.0389    2.1496   -0.9647 C   0  0  0  0  0  0  0  0  0  0  0  0
    4.6597    1.6849   -1.2953 C   0  0  0  0  0  3  0  0  0  0  0  0
    4.5580    0.2149   -1.5435 C   0  0  0  0  0  0  0  0  0  0  0  0
    4.9901   -0.5987   -0.3290 C   0  0  2  0  0  0  0  0  0  0  0  0
    4.8789   -1.9538   -0.6059 O   0  0  0  0  0  0  0  0  0  0  0  0
    4.1383   -0.2761    0.8754 C   0  0  2  0  0  0  0  0  0  0  0  0
    4.5901   -1.0227    1.9532 O   0  0  0  0  0  0  0  0  0  0  0  0
    2.6808   -0.6005    0.6426 C   0  0  1  0  0  0  0  0  0  0  0  0
    1.9707   -0.2749    1.7886 O   0  0  0  0  0  0  0  0  0  0  0  0
    2.1694    0.0323   -0.4661 O   0  0  0  0  0  0  0  0  0  0  0  0
    0.8369   -0.3135   -0.6116 C   0  0  0  0  0  3  0  0  0  0  0  0
    0.4020   -1.0222    0.4896 O   0  0  0  0  0  0  0  0  0  0  0  0
   -0.6211   -0.3936    1.1283 N   0  0  0  0  0  0  0  0  0  0  0  0
   -1.5032    0.2019    0.1510 C   0  0  1  0  0  0  0  0  0  0  0  0
   -2.0859   -0.8180   -0.7731 C   0  0  0  0  0  0  0  0  0  0  0  0
   -3.4404   -0.3637   -1.2351 C   0  0  0  0  0  0  0  0  0  0  0  0
   -3.7715   -0.9620   -2.4717 O   0  0  0  0  0  0  0  0  0  0  0  0
   -3.4787    1.0221   -1.4777 O   0  0  0  0  0  0  0  0  0  0  0  0
   -4.4585   -0.6567   -0.3628 O   0  0  0  0  0  0  0  0  0  0  0  0
   -4.0542   -0.9676    0.9116 C   0  0  1  0  0  0  0  0  0  0  0  0
   -3.1500   -2.0149    0.9807 O   0  0  0  0  0  0  0  0  0  0  0  0
   -3.4901    0.2162    1.6607 C   0  0  2  0  0  0  0  0  0  0  0  0
   -4.5266    1.0447    2.1012 O   0  0  0  0  0  0  0  0  0  0  0  0
   -2.5483    1.0305    0.8282 C   0  0  1  0  0  0  0  0  0  0  0  0
   -1.9206    1.9602    1.6309 O   0  0  0  0  0  0  0  0  0  0  0  0
   -2.8646    2.6814    2.2196 O   0  0  0  0  0  0  0  0  0  0  0  0
  1  2  1  0
  2  3  1  0
  3  4  1  0
  4  5  1  6
  4  6  1  0
  6  7  1  1
  6  8  1  0
  8  9  1  1
  8 10  1  0
 10 11  1  0
 11 12  1  0
 12 13  1  0
 14 13  1  1
 14 15  1  0
 15 16  1  0
 16 17  1  0
 16 18  1  0
 16 19  1  0
 19 20  1  0
 20 21  1  6
 20 22  1  0
 22 23  1  6
 22 24  1  0
 24 25  1  1
 25 26  1  0
 24 14  1  0
M  RAD  2   2   2  11   2
M  END
$$$$
