
     RDKit          3D

 28 27  0  0  0  0  0  0  0  0999 V2000
    0.2346    2.5275   -1.9412 N   0  0  0  0  0  0  0  0  0  0  0  0
   -0.7621    1.9957   -1.3198 C   0  0  0  0  0  0  0  0  0  0  0  0
   -1.5243    2.8382   -0.4740 N   0  0  0  0  0  0  0  0  0  0  0  0
   -1.0690    4.0873   -0.0249 N   0  0  0  0  0  0  0  0  0  0  0  0
   -1.0796    0.5590   -1.5036 C   0  0  0  0  0  0  0  0  0  0  0  0
   -1.0514   -0.1533   -0.2037 C   0  0  0  0  0  0  0  0  0  0  0  0
   -0.7548    0.4873    0.7872 O   0  0  0  0  0  0  0  0  0  0  0  0
   -1.3697   -1.5829   -0.0938 C   0  0  0  0  0  0  0  0  0  0  0  0
   -1.3099   -2.0709    1.2609 N   0  0  0  0  0  0  0  0  0  0  0  0
   -0.2066   -2.0582    2.1146 C   0  0  0  0  0  0  0  0  0  0  0  0
    0.8621   -1.5859    1.7120 O   0  0  0  0  0  0  0  0  0  0  0  0
   -2.7198   -1.7951   -0.4949 O   0  0  0  0  0  0  0  0  0  0  0  0
   -3.5105   -1.0770    0.3166 N   0  0  0  0  0  0  0  0  0  0  0  0
   -3.5728   -1.7735    1.9289 S   0  0  0  0  0  0  0  0  0  0  0  0
   -4.2638   -0.5021    3.1768 S   0  0  0  0  0  0  0  0  0  0  0  0
   -4.6633    1.0542    2.3796 C   0  0  0  0  0  0  0  0  0  0  0  0
   -6.1223    1.1744    2.2012 C   0  0  0  0  0  0  0  0  0  0  0  0
   -6.9302    0.3449    2.5425 O   0  0  0  0  0  0  0  0  0  0  0  0
   -0.5310   -2.4454   -0.9396 C   0  0  0  0  0  0  0  0  0  0  0  0
    0.6230   -2.2215   -1.4687 C   0  0  0  0  0  0  0  0  0  0  0  0
    1.6745   -0.8736   -1.4360 S   0  0  0  0  0  0  0  0  0  0  0  0
    2.5569    0.2785   -1.3895 C   0  0  0  0  0  0  0  0  0  0  0  0
    3.3609    1.3414   -1.3643 O   0  0  0  0  0  0  0  0  0  0  0  0
    4.6234    1.2660   -1.8596 O   0  0  0  0  0  0  0  0  0  0  0  0
    5.2090    0.0749   -1.4254 C   0  0  0  0  0  0  0  0  0  0  0  0
    6.6100   -0.0312   -1.9618 C   0  0  0  0  0  2  0  0  0  0  0  0
    7.5985   -0.9643   -0.8064 S   0  0  0  0  0  0  0  0  0  0  0  0
    8.0882   -0.0307    0.2867 O   0  0  0  0  0  0  0  0  0  0  0  0
  1  2  2  0
  2  3  1  0
  3  4  1  0
  2  5  1  0
  5  6  1  0
  6  7  2  0
  6  8  1  0
  8  9  1  0
  9 10  1  0
 10 11  2  0
  8 12  1  0
 12 13  1  0
 13 14  1  0
 14 15  2  3
 15 16  1  0
 16 17  1  0
 17 18  2  0
  8 19  1  0
 19 20  2  3
 20 21  1  0
 21 22  3  0
 22 23  1  0
 23 24  1  0
 24 25  1  0
 25 26  1  0
 26 27  1  0
 27 28  2  0
M  RAD  1  26   3
M  END
$$$$
