
     RDKit          3D

 16 17  0  0  0  0  0  0  0  0999 V2000
   -2.4846    1.2317    0.9384 C   0  0  0  0  0  0  0  0  0  0  0  0
   -2.2204    0.1518    1.7850 O   0  0  0  0  0  0  0  0  0  0  0  0
   -2.7937   -0.9717    1.2123 C   0  0  0  0  0  3  0  0  0  0  0  0
   -2.2063   -1.2939   -0.0098 O   0  0  0  0  0  0  0  0  0  0  0  0
   -0.8891   -1.6616    0.2274 C   0  0  2  0  0  0  0  0  0  0  0  0
   -0.5094   -1.4283    1.6522 C   0  0  0  0  0  0  0  0  0  0  0  0
   -0.0198   -0.9627   -0.7622 C   0  0  0  0  0  3  0  0  0  0  0  0
    0.6552    0.2547   -0.2534 C   0  0  1  0  0  0  0  0  0  0  0  0
    1.3390    0.9666   -1.4021 C   0  0  0  0  0  3  0  0  0  0  0  0
    2.3638    0.0884   -2.0534 C   0  0  0  0  0  0  0  0  0  0  0  0
    3.4472   -0.3408   -1.0879 C   0  0  2  0  0  0  0  0  0  0  0  0
    2.9936   -1.1233    0.1125 C   0  0  0  0  0  0  0  0  0  0  0  0
    3.3086    0.2846    0.2077 O   0  0  0  0  0  0  0  0  0  0  0  0
   -0.1181    1.1286    0.4446 O   0  0  0  0  0  0  0  0  0  0  0  0
   -1.3567    1.3763   -0.0146 C   0  0  0  0  0  0  0  0  0  0  0  0
   -1.5091    2.2997   -0.9968 O   0  0  0  0  0  0  0  0  0  0  0  0
  1  2  1  0
  2  3  1  0
  3  4  1  0
  4  5  1  0
  5  6  1  1
  5  7  1  0
  7  8  1  0
  8  9  1  6
  9 10  1  0
 11 10  1  6
 11 12  1  0
 11 13  1  0
  8 14  1  0
 14 15  1  0
 15 16  1  0
 15  1  1  0
 13 12  1  0
M  RAD  3   3   2   7   2   9   2
M  END
$$$$
