
     RDKit          3D

  7  6  0  0  0  0  0  0  0  0999 V2000
    2.7169    0.4969    0.4372 O   0  0  0  0  0  0  0  0  0  0  0  0
    1.9320   -0.0585    1.2277 C   0  0  0  0  0  0  0  0  0  0  0  0
    0.6014   -0.1933    0.8357 O   0  0  0  0  0  0  0  0  0  0  0  0
    0.1202    0.2675   -0.4003 C   0  0  0  0  0  0  0  0  0  0  0  0
   -1.3206   -0.0381   -0.4817 C   0  0  0  0  0  0  0  0  0  0  0  0
   -2.0363   -0.7261    0.6291 C   0  0  0  0  0  0  0  0  0  0  0  0
   -2.0136    0.2517   -1.4590 O   0  0  0  0  0  0  0  0  0  0  0  0
  1  2  2  0
  2  3  1  0
  3  4  1  0
  4  5  1  0
  5  6  1  0
  5  7  2  0
M  END
$$$$
