
     RDKit          3D

 11 10  0  0  0  0  0  0  0  0999 V2000
   -4.7806    1.1038    0.5031 F   0  0  0  0  0  0  0  0  0  0  0  0
   -3.5077    0.7895    0.1788 N   0  0  0  0  0  0  0  0  0  0  0  0
   -3.2081    0.1161   -0.8527 N   0  0  0  0  0  3  0  0  0  0  0  0
   -1.9105   -0.1657   -1.1216 O   0  0  0  0  0  0  0  0  0  0  0  0
   -1.2276   -1.7015   -0.6987 S   0  0  0  0  0  0  0  0  0  0  0  0
    0.3484   -1.7932   -0.3065 C   0  0  0  0  0  0  0  0  0  0  0  0
    1.1773   -0.6807   -0.2966 O   0  0  0  0  0  0  0  0  0  0  0  0
    2.2715   -0.6712   -1.1790 C   0  0  0  0  0  0  0  0  0  0  0  0
    3.0228    0.4887   -1.0771 O   0  0  0  0  0  0  0  0  0  0  0  0
    3.5480    0.6646    0.2159 C   0  0  0  0  0  0  0  0  0  0  0  0
    4.2665    1.8496    0.1671 F   0  0  0  0  0  0  0  0  0  0  0  0
  1  2  1  0
  2  3  2  3
  3  4  1  0
  4  5  1  0
  5  6  2  3
  6  7  1  0
  7  8  1  0
  8  9  1  0
  9 10  1  0
 10 11  1  0
M  CHG  1   3   1
M  RAD  1   3   2
M  END
$$$$
