
     RDKit          3D

 36 37  0  0  0  0  0  0  0  0999 V2000
   -2.5023    0.8624    0.8784 C   0  0  0  0  0  0  0  0  0  0  0  0
   -2.6152   -0.6370    0.9084 C   0  0  0  0  0  0  0  0  0  0  0  0
   -2.1263   -1.1385    2.2641 C   0  0  0  0  0  0  0  0  0  0  0  0
   -1.7554   -1.3100   -0.1388 C   0  0  0  0  0  0  0  0  0  0  0  0
   -2.2150   -2.7600   -0.2233 C   0  0  0  0  0  0  0  0  0  0  0  0
   -1.2904   -3.5846   -1.0876 C   0  0  0  0  0  0  0  0  0  0  0  0
   -0.1216   -4.1191   -0.2877 C   0  0  1  0  0  0  0  0  0  0  0  0
   -0.1141   -5.6222   -0.4211 C   0  0  0  0  0  0  0  0  0  0  0  0
    1.1371   -3.5258   -0.8595 C   0  0  0  0  0  3  0  0  0  0  0  0
    2.0451   -2.9754    0.2429 C   0  0  0  0  0  0  0  0  0  0  0  0
    3.4650   -3.2607   -0.1530 C   0  0  0  0  0  3  0  0  0  0  0  0
    4.3117   -2.0192   -0.2234 C   0  0  0  0  0  3  0  0  0  0  0  0
    4.4380   -1.3197    1.1021 C   0  0  1  0  0  0  0  0  0  0  0  0
    5.2139   -2.1142    2.1116 C   0  0  0  0  0  2  0  0  0  0  0  0
    5.1936   -0.0208    0.8624 C   0  0  0  0  0  0  0  0  0  0  0  0
    5.1456    0.3664   -0.5751 C   0  0  0  0  0  0  0  0  0  0  0  0
    6.0194   -0.3995   -1.5098 C   0  0  0  0  0  0  0  0  0  0  0  0
    4.3539    1.3419   -0.9440 C   0  0  0  0  0  0  0  0  0  0  0  0
    3.4747    2.1197   -0.0343 C   0  0  0  0  0  0  0  0  0  0  0  0
    3.7978    3.5896   -0.2442 C   0  0  0  0  0  0  0  0  0  0  0  0
    3.3762    4.0411   -1.4914 O   0  0  0  0  0  0  0  0  0  0  0  0
    3.1283    4.3665    0.8525 C   0  0  0  0  0  0  0  0  0  0  0  0
    1.7353    4.7190    0.4348 C   0  0  0  0  0  3  0  0  0  0  0  0
    0.7446    3.7829    1.0839 C   0  0  0  0  0  0  0  0  0  0  0  0
   -0.5378    4.2302    0.8312 O   0  0  0  0  0  0  0  0  0  0  0  0
   -1.4045    3.1394    0.8728 C   0  0  0  0  0  0  0  0  0  0  0  0
   -1.6393    2.6516   -0.5595 C   0  0  0  0  0  0  0  0  0  0  0  0
   -2.5493    1.4352   -0.5011 C   0  0  2  0  0  0  0  0  0  0  0  0
   -3.9533    1.9154   -0.8173 C   0  0  0  0  0  0  0  0  0  0  0  0
   -4.4305    1.3088   -2.1384 C   0  0  0  0  0  3  0  0  0  0  0  0
   -4.7037   -0.1639   -1.8456 C   0  0  0  0  0  3  0  0  0  0  0  0
   -5.7528   -0.1906   -0.7496 C   0  0  1  0  0  0  0  0  0  0  0  0
   -6.4034   -1.4261   -0.7892 O   0  0  0  0  0  0  0  0  0  0  0  0
   -5.0319   -0.0314    0.5837 C   0  0  0  0  0  0  0  0  0  0  0  0
   -4.0206   -1.1312    0.7376 C   0  0  2  0  0  0  0  0  0  0  0  0
   -4.4127   -2.1202    1.8273 C   0  0  0  0  0  2  0  0  0  0  0  0
  1  2  1  0
  2  3  1  0
  2  4  1  0
  4  5  1  0
  5  6  1  0
  6  7  1  0
  7  8  1  6
  7  9  1  0
  9 10  1  0
 10 11  1  0
 11 12  1  0
 12 13  1  0
 13 14  1  1
 13 15  1  0
 15 16  1  0
 16 17  1  0
 16 18  2  3
 18 19  1  0
 19 20  1  0
 20 21  1  0
 20 22  1  0
 22 23  1  0
 23 24  1  0
 24 25  1  0
 25 26  1  0
 26 27  1  0
 28 27  1  1
 28 29  1  0
 29 30  1  0
 30 31  1  0
 31 32  1  0
 32 33  1  1
 32 34  1  0
 34 35  1  0
 35 36  1  1
 28  1  1  0
 35  2  1  0
M  RAD  8   9   2  11   2  12   2  14   3  23   2  30   2  31   2  36   3
M  END
$$$$
