
     RDKit          2D

 87 90  0  0  0  0  0  0  0  0999 V2000
   -0.5169   13.3606    0.0000 C   0  0  0  0  0  0  0  0  0  0  0  0
   -2.0169   13.3531    0.0000 C   0  0  0  0  0  0  0  0  0  0  0  0
   -2.7734   14.6484    0.0000 C   0  0  0  0  0  0  0  0  0  0  0  0
   -2.7604   12.0503    0.0000 C   0  0  0  0  0  0  0  0  0  0  0  0
   -4.2604   12.0428    0.0000 C   0  0  0  0  0  0  0  0  0  0  0  0
   -5.0039   10.7401    0.0000 C   0  0  0  0  0  0  0  0  0  0  0  0
   -6.5039   10.7326    0.0000 C   0  0  0  0  0  0  0  0  0  0  0  0
   -7.2604   12.0279    0.0000 C   0  0  0  0  0  0  0  0  0  0  0  0
   -7.2474    9.4298    0.0000 C   0  0  0  0  0  3  0  0  0  0  0  0
   -6.4909    8.1345    0.0000 C   0  0  0  0  0  0  0  0  0  0  0  0
   -7.2344    6.8318    0.0000 C   0  0  0  0  0  0  0  0  0  0  0  0
   -6.4780    5.5365    0.0000 C   0  0  0  0  0  3  0  0  0  0  0  0
   -7.4364    4.3826    0.0000 C   0  0  0  0  0  0  0  0  0  0  0  0
   -5.0021    5.8043    0.0000 C   0  0  0  0  0  3  0  0  0  0  0  0
   -3.6993    5.0608    0.0000 C   0  0  0  0  0  0  0  0  0  0  0  0
   -3.1793    3.6539    0.0000 C   0  0  0  0  0  0  0  0  0  0  0  0
   -2.8528    5.1179    0.0000 C   0  0  0  0  0  0  0  0  0  0  0  0
   -2.1107    4.7066    0.0000 C   0  0  0  0  0  0  0  0  0  0  0  0
   -0.6912    5.1914    0.0000 C   0  0  0  0  0  0  0  0  0  0  0  0
    0.7981    5.0123    0.0000 C   0  0  0  0  0  0  0  0  0  0  0  0
    1.3041    6.4244    0.0000 O   0  0  0  0  0  0  0  0  0  0  0  0
    2.0621    4.2048    0.0000 S   0  0  0  0  0  0  0  0  0  0  0  0
    2.8507    2.9287    0.0000 C   0  0  0  0  0  0  0  0  0  0  0  0
    1.7324    1.9290    0.0000 C   0  0  0  0  0  0  0  0  0  0  0  0
    2.4354    0.6040    0.0000 C   0  0  0  0  0  0  0  0  0  0  0  0
    0.2776    1.5635    0.0000 C   0  0  0  0  0  0  0  0  0  0  0  0
   -1.1804    1.9160    0.0000 S   0  0  0  0  0  0  0  0  0  0  0  0
   -7.4289    2.8827    0.0000 C   0  0  0  0  0  0  0  0  0  0  0  0
   -6.4590    1.7384    0.0000 S   0  0  0  0  0  0  0  0  0  0  0  0
   -4.9805    1.4853    0.0000 C   0  0  0  0  0  0  0  0  0  0  0  0
   -3.6853    2.2418    0.0000 C   0  0  0  0  0  0  0  0  0  0  0  0
   -3.5285    0.7500    0.0000 S   0  0  0  0  0  0  0  0  0  0  0  0
   -2.3918    0.9406    0.0000 C   0  0  0  0  0  0  0  0  0  0  0  0
   -1.3843    1.9817    0.0000 S   0  0  0  0  0  0  0  0  0  0  0  0
   -0.1576    1.4990    0.0000 C   0  0  0  0  0  0  0  0  0  0  0  0
    0.9420    2.2262    0.0000 C   0  0  0  0  0  0  0  0  0  0  0  0
    2.1439    1.4173    0.0000 C   0  0  0  0  0  0  0  0  0  0  0  0
    3.2954    1.4672    0.0000 S   0  0  0  0  0  0  0  0  0  0  0  0
    3.6073    0.0000    0.0000 C   0  0  0  0  0  3  0  0  0  0  0  0
    3.2954   -1.4672    0.0000 O   0  0  0  0  0  0  0  0  0  0  0  0
    2.4138   -2.6807    0.0000 C   0  0  0  0  0  0  0  0  0  0  0  0
    1.1147   -3.4307    0.0000 C   0  0  0  0  0  0  0  0  0  0  0  0
   -0.3771   -3.5875    0.0000 S   0  0  0  0  0  0  0  0  0  0  0  0
   -0.5339   -5.0793    0.0000 C   0  0  0  0  0  0  0  0  0  0  0  0
   -1.8037   -3.1240    0.0000 C   0  0  0  0  0  0  0  0  0  0  0  0
   -2.9184   -2.1203    0.0000 C   0  0  0  0  0  0  0  0  0  0  0  0
   -3.5285   -0.7500    0.0000 S   0  0  0  0  0  0  0  0  0  0  0  0
   -4.2095   -2.0865    0.0000 C   0  0  0  0  0  0  0  0  0  0  0  0
   -5.7074   -2.1650    0.0000 C   0  0  0  0  0  0  0  0  0  0  0  0
   -6.3884   -3.5015    0.0000 S   0  0  0  0  0  0  0  0  0  0  0  0
   -6.5244   -0.9070    0.0000 S   0  0  0  0  0  0  0  0  0  0  0  0
   -8.0223   -0.9855    0.0000 C   0  0  0  0  0  0  0  0  0  0  0  0
   -8.7033   -2.3220    0.0000 S   0  0  0  0  0  0  0  0  0  0  0  0
   -8.8393    0.2725    0.0000 C   0  0  0  0  0  0  0  0  0  0  0  0
  -10.3372    0.1940    0.0000 C   0  0  0  0  0  0  0  0  0  0  0  0
  -11.1542    1.4520    0.0000 C   0  0  0  0  0  0  0  0  0  0  0  0
  -12.6521    1.3735    0.0000 C   0  0  0  0  0  0  0  0  0  0  0  0
   -4.9957   -1.0619    0.0000 S   0  0  0  0  0  0  0  0  0  0  0  0
   -4.6942    0.1940    0.0000 C   0  0  0  0  0  0  0  0  0  0  0  0
   -6.1830    0.0113    0.0000 S   0  0  0  0  0  0  0  0  0  0  0  0
   -4.4595    1.6755    0.0000 S   0  0  0  0  0  0  0  0  0  0  0  0
   -5.6253    2.6195    0.0000 C   0  0  0  0  0  0  0  0  0  0  0  0
   -5.3906    4.1010    0.0000 C   0  0  0  0  0  0  0  0  0  0  0  0
   -6.5563    5.0450    0.0000 C   0  0  0  0  0  0  0  0  0  0  0  0
   -8.0452    4.8623    0.0000 S   0  0  0  0  0  0  0  0  0  0  0  0
   -6.3217    6.5265    0.0000 C   0  0  0  0  0  3  0  0  0  0  0  0
   -7.4874    7.4705    0.0000 C   0  0  0  0  0  0  0  0  0  0  0  0
   -7.2527    8.9521    0.0000 C   0  0  0  0  0  0  0  0  0  0  0  0
   -8.4185    9.8960    0.0000 S   0  0  0  0  0  0  0  0  0  0  0  0
   -8.1838   11.3776    0.0000 S   0  0  0  0  0  0  0  0  0  0  0  0
   -9.8188    9.3585    0.0000 S   0  0  0  0  0  0  0  0  0  0  0  0
  -10.9846   10.3025    0.0000 C   0  0  0  0  0  3  0  0  0  0  0  0
  -12.3849    9.7649    0.0000 S   0  0  0  0  0  0  0  0  0  0  0  0
  -13.5506   10.7089    0.0000 C   0  0  0  0  0  3  0  0  0  0  0  0
  -14.9510   10.1713    0.0000 S   0  0  0  0  0  0  0  0  0  0  0  0
  -16.1167   11.1153    0.0000 S   0  0  0  0  0  0  0  0  0  0  0  0
  -17.5171   10.5778    0.0000 S   0  0  0  0  0  0  0  0  0  0  0  0
  -18.6828   11.5217    0.0000 C   0  0  0  0  0  0  0  0  0  0  0  0
  -20.0832   10.9842    0.0000 C   0  0  0  0  0  0  0  0  0  0  0  0
  -21.2489   11.9282    0.0000 C   0  0  0  0  0  3  0  0  0  0  0  0
  -22.6493   11.3906    0.0000 S   0  0  0  0  0  0  0  0  0  0  0  0
  -23.8150   12.3346    0.0000 S   0  0  0  0  0  0  0  0  0  0  0  0
  -22.8839    9.9091    0.0000 S   0  0  0  0  0  0  0  0  0  0  0  0
  -24.2843    9.3715    0.0000 S   0  0  0  0  0  0  0  0  0  0  0  0
  -24.5190    7.8900    0.0000 S   0  0  0  0  0  0  0  0  0  0  0  0
  -25.9193    7.3525    0.0000 S   0  0  0  0  0  0  0  0  0  0  0  0
  -26.1540    5.8709    0.0000 S   0  0  0  0  0  0  0  0  0  0  0  0
  1  2  1  0
  2  3  1  0
  2  4  1  0
  4  5  1  0
  5  6  1  0
  6  7  1  0
  7  8  1  6
  7  9  1  0
  9 10  1  0
 10 11  1  0
 11 12  1  0
 12 13  1  0
 12 14  1  0
 14 15  1  0
 15 16  1  0
 16 17  1  0
 16 18  1  0
 18 19  1  0
 19 20  1  0
 20 21  1  0
 20 22  1  0
 22 23  1  0
 23 24  1  0
 24 25  1  0
 24 26  1  0
 26 27  1  0
 27 28  1  0
 28 29  1  0
 29 30  1  0
 30 31  1  0
 31 32  1  6
 32 33  1  0
 33 34  1  0
 34 35  1  0
 35 36  1  0
 36 37  1  0
 37 38  1  0
 38 39  1  0
 39 40  1  0
 40 41  1  0
 41 42  1  0
 42 43  1  0
 43 44  1  0
 43 45  1  0
 45 46  1  0
 46 47  1  0
 47 48  1  0
 48 49  1  0
 49 50  1  6
 49 51  1  0
 51 52  1  0
 52 53  1  0
 52 54  1  0
 54 55  1  0
 55 56  1  0
 56 57  1  0
 47 58  1  0
 47 59  1  0
 59 60  1  6
 59 61  1  0
 61 62  1  0
 62 63  1  0
 63 64  1  0
 64 65  1  6
 64 66  1  0
 66 67  1  0
 67 68  1  0
 68 69  1  0
 69 70  1  0
 69 71  1  0
 71 72  1  0
 72 73  1  0
 73 74  1  0
 74 75  1  0
 75 76  1  0
 76 77  1  0
 77 78  1  0
 78 79  1  0
 79 80  1  0
 80 81  1  0
 81 82  1  0
 81 83  1  0
 83 84  1  0
 84 85  1  0
 85 86  1  0
 86 87  1  0
 28 13  1  0
 31 16  1  0
 38 23  1  0
 47 32  1  0
M  RAD  8   9   2  12   2  14   2  39   2  66   2  72   2  74   2  80   2
M  END
$$$$
