
     RDKit          3D

 23 24  0  0  0  0  0  0  0  0999 V2000
    2.1132   -2.6066    1.2807 C   0  0  0  0  0  0  0  0  0  0  0  0
    2.4277   -1.1348    1.5147 C   0  0  1  0  0  0  0  0  0  0  0  0
    3.8775   -0.8421    1.4820 C   0  0  0  0  0  0  0  0  0  0  0  0
    4.4131   -0.2484    0.2254 C   0  0  2  0  0  0  0  0  0  0  0  0
    4.9968    0.9799    0.5797 O   0  0  0  0  0  0  0  0  0  0  0  0
    3.3614    0.0378   -0.8143 C   0  0  2  0  0  0  0  0  0  0  0  0
    3.8953    0.7521   -1.8656 O   0  0  0  0  0  0  0  0  0  0  0  0
    2.2724    0.8109   -0.0755 C   0  0  1  0  0  0  0  0  0  0  0  0
    1.3468    1.3340   -0.9893 O   0  0  0  0  0  0  0  0  0  0  0  0
    1.5433   -0.2179    0.7444 C   0  0  1  0  0  0  0  0  0  0  0  0
    0.6701   -0.9320   -0.1868 N   0  0  0  0  0  0  0  0  0  0  0  0
   -0.6220   -0.3125   -0.0920 C   0  0  1  0  0  0  0  0  0  0  0  0
   -1.4111   -0.3352   -1.3683 C   0  0  0  0  0  0  0  0  0  0  0  0
   -2.7952    0.2114   -1.0384 C   0  0  2  0  0  0  0  0  0  0  0  0
   -3.5764   -0.8923   -0.6617 O   0  0  0  0  0  0  0  0  0  0  0  0
   -3.4153    0.9315   -2.2033 C   0  0  0  0  0  0  0  0  0  0  0  0
   -4.7122    1.2762   -1.8355 O   0  0  0  0  0  0  0  0  0  0  0  0
   -2.6903    1.0897    0.1974 C   0  0  1  0  0  0  0  0  0  0  0  0
   -3.7662    1.9478    0.3224 O   0  0  0  0  0  0  0  0  0  0  0  0
   -2.5427    0.1553    1.3849 C   0  0  2  0  0  0  0  0  0  0  0  0
   -2.1889    0.8682    2.5414 O   0  0  0  0  0  0  0  0  0  0  0  0
   -1.3961   -0.7858    1.1030 C   0  0  1  0  0  0  0  0  0  0  0  0
   -1.8013   -2.0872    0.8724 O   0  0  0  0  0  0  0  0  0  0  0  0
  2  1  1  6
  2  3  1  0
  3  4  1  0
  4  5  1  1
  4  6  1  0
  6  7  1  6
  6  8  1  0
  8  9  1  6
  8 10  1  0
 10 11  1  6
 12 11  1  6
 12 13  1  0
 13 14  1  0
 14 15  1  1
 14 16  1  0
 16 17  1  0
 14 18  1  0
 18 19  1  1
 18 20  1  0
 20 21  1  1
 20 22  1  0
 22 23  1  6
 10  2  1  0
 22 12  1  0
M  END
$$$$
