
     RDKit          3D

 18 18  0  0  0  0  0  0  0  0999 V2000
   -1.5077   -0.3424    1.9074 O   0  0  0  0  0  0  0  0  0  0  0  0
   -1.3428   -0.2228    0.5367 C   0  0  0  0  0  0  0  0  0  0  0  0
   -0.5016   -1.2701   -0.0102 N   0  0  0  0  0  0  0  0  0  0  0  0
   -0.8902   -2.5572    0.1370 O   0  0  0  0  0  0  0  0  0  0  0  0
    0.0787   -3.4514   -0.2780 C   0  0  0  0  0  0  0  0  0  0  0  0
    0.7060   -3.0321   -1.5007 O   0  0  0  0  0  0  0  0  0  0  0  0
    1.3191   -1.7653   -1.4277 C   0  0  0  0  0  0  0  0  0  0  0  0
    0.6793   -0.9130   -0.6692 N   0  0  0  0  0  4  0  0  0  0  0  0
    1.1526    0.4113   -0.4797 C   0  0  0  0  0  0  0  0  0  0  0  0
    0.5556    1.2472    0.2439 O   0  0  0  0  0  0  0  0  0  0  0  0
    2.3202    0.8608   -1.0941 O   0  0  0  0  0  0  0  0  0  0  0  0
    2.7766    2.2054   -0.8854 C   0  0  0  0  0  0  0  0  0  0  0  0
    3.0444    2.4572    0.5832 C   0  0  0  0  0  0  0  0  0  0  0  0
    4.3972    1.2570    1.2640 Br  0  0  0  0  0  0  0  0  0  0  0  0
   -2.6033   -0.3804   -0.0537 O   0  0  0  0  0  0  0  0  0  0  0  0
   -3.5105    0.5787    0.3825 C   0  0  0  0  0  0  0  0  0  0  0  0
   -2.9118    1.9365   -0.0131 C   0  0  0  0  0  0  0  0  0  0  0  0
   -3.7618    2.9804    0.3877 O   0  0  0  0  0  0  0  0  0  0  0  0
  1  2  1  0
  2  3  1  0
  3  4  1  0
  4  5  1  0
  5  6  1  0
  6  7  1  0
  7  8  2  0
  8  9  1  0
  9 10  2  0
  9 11  1  0
 11 12  1  0
 12 13  1  0
 13 14  1  0
  2 15  1  0
 15 16  1  0
 16 17  1  0
 17 18  1  0
  8  3  1  0
M  CHG  1   8   1
M  END
$$$$
