
     RDKit          3D

  6  6  0  0  0  0  0  0  0  0999 V2000
   -0.9223   -0.9930    0.0711 C   0  0  0  0  0  0  0  0  0  0  0  0
   -1.8731   -0.1119   -0.2281 C   0  0  0  0  0  0  0  0  0  0  0  0
   -0.9317    0.9971   -0.1099 C   0  0  0  0  0  0  0  0  0  0  0  0
    0.0261    0.1084    0.1916 C   0  0  0  0  0  0  0  0  0  0  0  0
    1.3780    0.2128    0.4950 O   0  0  0  0  0  0  0  0  0  0  0  0
    2.3231   -0.2134   -0.4197 N   0  0  0  0  0  0  0  0  0  0  0  0
  1  2  2  0
  2  3  1  0
  3  4  2  0
  4  5  1  0
  5  6  1  0
  4  1  1  0
M  END
$$$$
