
     RDKit          3D

 18 18  0  0  0  0  0  0  0  0999 V2000
    4.6497    1.2878    0.7077 O   0  0  0  0  0  0  0  0  0  0  0  0
    4.7771    0.0574    0.4629 C   0  0  0  0  0  0  0  0  0  0  0  0
    5.7312   -0.6716    1.1558 O   0  0  0  0  0  0  0  0  0  0  0  0
    3.9278   -0.6508   -0.5606 C   0  0  0  0  0  0  0  0  0  0  0  0
    3.0792   -1.5789    0.2165 C   0  0  0  0  0  0  0  0  0  0  0  0
    1.7803   -1.4564    0.1874 C   0  0  0  0  0  0  0  0  0  0  0  0
    1.1752   -0.4071   -0.6097 C   0  0  0  0  0  0  0  0  0  0  0  0
    2.1756    0.8203   -1.6428 Br  0  0  0  0  0  0  0  0  0  0  0  0
   -0.1368   -0.3011   -0.6160 C   0  0  0  0  0  0  0  0  0  0  0  0
   -0.8601   -1.2254    0.1576 O   0  0  0  0  0  0  0  0  0  0  0  0
   -2.2222   -1.3520   -0.1900 C   0  0  0  0  0  0  0  0  0  0  0  0
   -3.0144   -0.3610    0.2308 C   0  0  0  0  0  0  0  0  0  0  0  0
   -4.4380   -0.4813   -0.1275 C   0  0  0  0  0  0  0  0  0  0  0  0
   -5.1350    0.6139   -0.4164 C   0  0  0  0  0  0  0  0  0  0  0  0
   -4.3814    1.9142   -0.3480 C   0  0  0  0  0  0  0  0  0  0  0  0
   -3.5294    1.9402    0.9071 C   0  0  0  0  0  0  0  0  0  0  0  0
   -2.5655    0.7994    1.0034 C   0  0  0  0  0  0  0  0  0  0  0  0
   -1.0135    1.0523   -1.6334 Br  0  0  0  0  0  0  0  0  0  0  0  0
  1  2  2  0
  2  3  1  0
  2  4  1  0
  4  5  1  0
  5  6  2  3
  6  7  1  0
  7  8  1  0
  7  9  2  3
  9 10  1  0
 10 11  1  0
 11 12  2  3
 12 13  1  0
 13 14  2  0
 14 15  1  0
 15 16  1  0
 16 17  1  0
  9 18  1  0
 17 12  1  0
M  END
$$$$
