
     RDKit          3D

 15 15  0  0  0  0  0  0  0  0999 V2000
   -0.0380   -2.6916    0.7500 C   0  0  0  0  0  0  0  0  0  0  0  0
    0.0357   -1.7393   -0.4228 C   0  0  0  0  0  3  0  0  0  0  0  0
    0.1525   -0.3129    0.0433 C   0  0  0  0  0  0  0  0  0  0  0  0
   -0.9920    0.1464    0.8822 C   0  0  2  0  0  0  0  0  0  0  0  0
   -1.5181   -0.9928    1.5355 O   0  0  0  0  0  0  0  0  0  0  0  0
   -2.1206    0.7311    0.0593 C   0  0  2  0  0  0  0  0  0  0  0  0
   -3.3520    0.2097    0.3717 O   0  0  0  0  0  0  0  0  0  0  0  0
   -1.7475    0.4915   -1.3931 C   0  0  1  0  0  0  0  0  0  0  0  0
   -2.7730    0.8345   -2.2566 O   0  0  0  0  0  0  0  0  0  0  0  0
   -0.5969    1.2733   -1.6183 O   0  0  0  0  0  0  0  0  0  0  0  0
    0.4716    0.5612   -1.1181 C   0  0  1  0  0  0  0  0  0  0  0  0
    1.7258    1.3673   -0.9643 C   0  0  0  0  0  3  0  0  0  0  0  0
    2.8531    0.4030   -0.7844 C   0  0  0  0  0  0  0  0  0  0  0  0
    3.4220    0.3124    0.3876 C   0  0  0  0  0  0  0  0  0  0  0  0
    4.4772   -0.5938    0.5465 O   0  0  0  0  0  0  0  0  0  0  0  0
  1  2  1  0
  2  3  1  0
  3  4  1  0
  4  5  1  6
  4  6  1  0
  6  7  1  1
  6  8  1  0
  8  9  1  6
  8 10  1  0
 10 11  1  0
 11 12  1  1
 12 13  1  0
 13 14  2  3
 14 15  1  0
 11  3  1  0
M  RAD  2   2   2  12   2
M  END
$$$$
