
     RDKit          2D

 88 87  0  0  0  0  0  0  0  0999 V2000
    0.0000    0.0000    0.0000 C   0  0  0  0  0  0  0  0  0  0  0  0
    1.2990    0.7500    0.0000 O   0  0  0  0  0  0  0  0  0  0  0  0
    2.5981   -0.0000    0.0000 C   0  0  0  0  0  3  0  0  0  0  0  0
    3.8971    0.7500    0.0000 C   0  0  0  0  0  3  0  0  0  0  0  0
    5.1962   -0.0000    0.0000 C   0  0  0  0  0  0  0  0  0  0  0  0
    6.4952    0.7500    0.0000 C   0  0  0  0  0  0  0  0  0  0  0  0
    7.7942   -0.0000    0.0000 C   0  0  0  0  0  2  0  0  0  0  0  0
    5.1962   -1.5000    0.0000 C   0  0  0  0  0  0  0  0  0  0  0  0
    3.8971   -2.2500    0.0000 O   0  0  0  0  0  0  0  0  0  0  0  0
    3.8971   -3.7500    0.0000 C   0  0  0  0  0  3  0  0  0  0  0  0
    2.5981   -4.5000    0.0000 C   0  0  0  0  0  0  0  0  0  0  0  0
    1.2990   -3.7500    0.0000 C   0  0  0  0  0  0  0  0  0  0  0  0
    0.0000   -4.5000    0.0000 O   0  0  0  0  0  0  0  0  0  0  0  0
   -1.2990   -3.7500    0.0000 C   0  0  0  0  0  3  0  0  0  0  0  0
   -2.5981   -4.5000    0.0000 C   0  0  0  0  0  2  0  0  0  0  0  0
    2.5981   -6.0000    0.0000 C   0  0  0  0  0  0  0  0  0  0  0  0
    1.2990   -6.7500    0.0000 C   0  0  0  0  0  3  0  0  0  0  0  0
    1.2990   -8.2500    0.0000 O   0  0  0  0  0  0  0  0  0  0  0  0
    0.0000   -9.0000    0.0000 C   0  0  0  0  0  0  0  0  0  0  0  0
    0.0000  -10.5000    0.0000 C   0  0  0  0  0  3  0  0  0  0  0  0
   -1.2990  -11.2500    0.0000 C   0  0  0  0  0  3  0  0  0  0  0  0
   -1.2990  -12.7500    0.0000 C   0  0  0  0  0  3  0  0  0  0  0  0
   -2.5981  -13.5000    0.0000 O   0  0  0  0  0  0  0  0  0  0  0  0
    6.4952   -2.2500    0.0000 C   0  0  0  0  0  3  0  0  0  0  0  0
    6.4952   -3.7500    0.0000 C   0  0  0  0  0  3  0  0  0  0  0  0
    7.7942   -4.5000    0.0000 O   0  0  0  0  0  0  0  0  0  0  0  0
    7.7942   -6.0000    0.0000 C   0  0  0  0  0  3  0  0  0  0  0  0
    9.0933   -6.7500    0.0000 C   0  0  0  0  0  0  0  0  0  0  0  0
    9.0933   -8.2500    0.0000 C   0  0  0  0  0  3  0  0  0  0  0  0
   10.3923   -9.0000    0.0000 C   0  0  0  0  0  3  0  0  0  0  0  0
   10.3923  -10.5000    0.0000 C   0  0  0  0  0  0  0  0  0  0  0  0
    9.0933  -11.2500    0.0000 O   0  0  0  0  0  0  0  0  0  0  0  0
   11.6913  -11.2500    0.0000 C   0  0  0  0  0  3  0  0  0  0  0  0
   11.6913  -12.7500    0.0000 C   0  0  0  0  0  0  0  0  0  0  0  0
   12.9904  -13.5000    0.0000 O   0  0  0  0  0  0  0  0  0  0  0  0
   12.9904  -15.0000    0.0000 C   0  0  0  0  0  3  0  0  0  0  0  0
   14.2894  -15.7500    0.0000 C   0  0  0  0  0  2  0  0  0  0  0  0
   10.3923   -6.0000    0.0000 C   0  0  0  0  0  0  0  0  0  0  0  0
   11.6913   -6.7500    0.0000 O   0  0  0  0  0  0  0  0  0  0  0  0
   12.9904   -6.0000    0.0000 C   0  0  0  0  0  3  0  0  0  0  0  0
   14.2894   -6.7500    0.0000 C   0  0  0  0  0  3  0  0  0  0  0  0
   15.5885   -6.0000    0.0000 C   0  0  0  0  0  2  0  0  0  0  0  0
   10.3923   -4.5000    0.0000 O   0  0  0  0  0  0  0  0  0  0  0  0
   11.6913   -3.7500    0.0000 O   0  0  0  0  0  0  0  0  0  0  0  0
   11.6913   -2.2500    0.0000 C   0  0  0  0  0  3  0  0  0  0  0  0
   12.9904   -1.5000    0.0000 C   0  0  0  0  0  3  0  0  0  0  0  0
   12.9904   -0.0000    0.0000 C   0  0  0  0  0  3  0  0  0  0  0  0
   14.2894    0.7500    0.0000 O   0  0  0  0  0  0  0  0  0  0  0  0
   14.2894    2.2500    0.0000 C   0  0  0  0  0  3  0  0  0  0  0  0
   15.5885    3.0000    0.0000 C   0  0  0  0  0  3  0  0  0  0  0  0
   15.5885    4.5000    0.0000 C   0  0  0  0  0  3  0  0  0  0  0  0
   16.8875    5.2500    0.0000 C   0  0  0  0  0  3  0  0  0  0  0  0
   16.8875    6.7500    0.0000 C   0  0  0  0  0  3  0  0  0  0  0  0
   18.1865    7.5000    0.0000 C   0  0  0  0  0  3  0  0  0  0  0  0
   18.1865    9.0000    0.0000 C   0  0  0  0  0  3  0  0  0  0  0  0
   19.4856    9.7500    0.0000 O   0  0  0  0  0  0  0  0  0  0  0  0
   19.4856   11.2500    0.0000 C   0  0  0  0  0  0  0  0  0  0  0  0
   18.1865   12.0000    0.0000 P   0  0  0  0  0  0  0  0  0  0  0  0
   18.1865   13.5000    0.0000 O   0  0  0  0  0  0  0  0  0  0  0  0
   16.8875   14.2500    0.0000 C   0  0  0  0  0  3  0  0  0  0  0  0
   16.8875   15.7500    0.0000 O   0  0  0  0  0  0  0  0  0  0  0  0
   20.7846   12.0000    0.0000 C   0  0  0  0  0  0  0  0  0  0  0  0
   22.0836   11.2500    0.0000 O   0  0  0  0  0  0  0  0  0  0  0  0
   23.3827   12.0000    0.0000 C   0  0  0  0  0  3  0  0  0  0  0  0
   24.6817   11.2500    0.0000 C   0  0  0  0  0  3  0  0  0  0  0  0
   25.9808   12.0000    0.0000 O   0  0  0  0  0  0  0  0  0  0  0  0
   20.7846   13.5000    0.0000 C   0  0  0  0  0  0  0  0  0  0  0  0
   19.4856   14.2500    0.0000 O   0  0  0  0  0  0  0  0  0  0  0  0
   22.0836   14.2500    0.0000 C   0  0  0  0  0  3  0  0  0  0  0  0
   22.0836   15.7500    0.0000 C   0  0  0  0  0  3  0  0  0  0  0  0
   23.3827   16.5000    0.0000 O   0  0  0  0  0  0  0  0  0  0  0  0
   23.3827   18.0000    0.0000 C   0  0  0  0  0  3  0  0  0  0  0  0
   24.6817   18.7500    0.0000 C   0  0  0  0  0  3  0  0  0  0  0  0
   24.6817   20.2500    0.0000 O   0  0  0  0  0  0  0  0  0  0  0  0
   25.9808   21.0000    0.0000 C   0  0  0  0  0  0  0  0  0  0  0  0
   25.9808   22.5000    0.0000 C   0  0  0  0  0  0  0  0  0  0  0  0
   27.2798   23.2500    0.0000 O   0  0  0  0  0  0  0  0  0  0  0  0
   27.2798   24.7500    0.0000 C   0  0  0  0  0  3  0  0  0  0  0  0
   28.5788   25.5000    0.0000 O   0  0  0  0  0  0  0  0  0  0  0  0
   28.5788   27.0000    0.0000 C   0  0  0  0  0  3  0  0  0  0  0  0
   29.8779   27.7500    0.0000 C   0  0  0  0  0  3  0  0  0  0  0  0
   29.8779   29.2500    0.0000 C   0  0  0  0  0  2  0  0  0  0  0  0
   27.2798   20.2500    0.0000 S   0  0  0  0  0  2  0  0  0  0  0  0
   28.5788   21.0000    0.0000 O   0  0  0  0  0  0  0  0  0  0  0  0
   29.8779   20.2500    0.0000 P   0  0  0  0  0  0  0  0  0  0  0  0
   31.1769   21.0000    0.0000 C   0  0  0  0  0  3  0  0  0  0  0  0
   32.4760   20.2500    0.0000 C   0  0  0  0  0  3  0  0  0  0  0  0
   33.7750   21.0000    0.0000 N   0  0  0  0  0  0  0  0  0  0  0  0
  1  2  1  0
  2  3  1  0
  3  4  1  0
  5  4  1  6
  5  6  1  0
  6  7  1  0
  5  8  1  0
  8  9  1  0
  9 10  1  0
 11 10  1  6
 11 12  1  0
 12 13  1  0
 13 14  1  0
 14 15  1  0
 11 16  1  0
 16 17  1  0
 17 18  1  0
 18 19  1  0
 19 20  1  0
 20 21  1  0
 21 22  1  0
 22 23  1  0
  8 24  1  6
 24 25  1  0
 25 26  1  0
 26 27  1  0
 28 27  1  1
 28 29  1  0
 29 30  1  0
 30 31  1  0
 31 32  1  1
 31 33  1  0
 33 34  1  0
 34 35  1  0
 35 36  1  0
 36 37  1  0
 28 38  1  0
 38 39  1  1
 39 40  1  0
 40 41  1  0
 41 42  1  0
 38 43  1  0
 43 44  1  0
 44 45  1  0
 45 46  1  0
 46 47  1  0
 47 48  1  0
 48 49  1  0
 49 50  1  0
 50 51  1  0
 51 52  1  0
 52 53  1  0
 53 54  1  0
 54 55  1  0
 55 56  1  0
 57 56  1  6
 57 58  1  0
 58 59  1  0
 59 60  1  0
 60 61  1  0
 57 62  1  0
 62 63  1  1
 63 64  1  0
 64 65  1  0
 65 66  1  0
 62 67  1  0
 67 68  1  6
 67 69  1  0
 69 70  1  0
 70 71  1  0
 71 72  1  0
 72 73  1  0
 73 74  1  0
 74 75  1  0
 75 76  1  6
 76 77  1  0
 77 78  1  0
 78 79  1  0
 79 80  1  0
 80 81  1  0
 81 82  1  0
 75 83  1  0
 83 84  1  0
 84 85  1  0
 85 86  1  0
 86 87  1  0
 87 88  1  0
M  RAD  8   3   2   4   2   7   3  10   2  14   2  15   3  17   2  20   2
M  RAD  8  21   2  22   2  24   2  25   2  27   2  29   2  30   2  33   2
M  RAD  8  36   2  37   3  40   2  41   2  42   3  45   2  46   2  47   2
M  RAD  8  49   2  50   2  51   2  52   2  53   2  54   2  55   2  60   2
M  RAD  8  64   2  65   2  69   2  70   2  72   2  73   2  78   2  80   2
M  CHG  1  83   1
M  RAD  5  81   2  82   3  83   2  86   2  87   2
M  END
$$$$
