
     RDKit          3D

 28 28  0  0  0  0  0  0  0  0999 V2000
    4.6372    1.5374    0.1563 C   0  0  0  0  0  0  0  0  0  0  0  0
    6.1214    1.7769    0.2459 C   0  0  0  0  0  0  0  0  0  0  0  0
    6.7976    1.4853   -1.0747 C   0  0  0  0  0  0  0  0  0  0  0  0
    6.7641    0.8965    1.3108 C   0  0  0  0  0  0  0  0  0  0  0  0
    6.5317   -0.5830    0.9698 C   0  0  0  0  0  0  0  0  0  0  0  0
    5.0501   -0.7765    0.9402 C   0  0  0  0  0  0  0  0  0  0  0  0
    4.5895   -2.1563    0.6238 C   0  0  0  0  0  0  0  0  0  0  0  0
    5.0386   -3.2211    1.5638 C   0  0  0  0  0  0  0  0  0  0  0  0
    4.4971   -2.5196   -0.7982 C   0  0  0  0  0  3  0  0  0  0  0  0
    3.4527   -1.7463   -1.5229 C   0  0  0  0  0  0  0  0  0  0  0  0
    2.0727   -2.0268   -1.1079 C   0  0  0  0  0  0  0  0  0  0  0  0
    1.6831   -1.7328    0.2977 C   0  0  1  0  0  0  0  0  0  0  0  0
    1.8111   -0.2757    0.6794 C   0  0  0  0  0  0  0  0  0  0  0  0
    0.2528   -2.1277    0.5936 C   0  0  0  0  0  0  0  0  0  0  0  0
   -0.6939   -1.3370   -0.3449 C   0  0  0  0  0  0  0  0  0  0  0  0
   -0.4640    0.1480   -0.0605 C   0  0  0  0  0  0  0  0  0  0  0  0
   -2.0857   -1.7731   -0.1626 C   0  0  0  0  0  0  0  0  0  0  0  0
   -3.0991   -1.1700   -0.9803 C   0  0  0  0  0  0  0  0  0  0  0  0
   -3.4072    0.2292   -1.0015 C   0  0  0  0  0  0  0  0  0  0  0  0
   -2.4414    1.1105   -1.3886 O   0  0  0  0  0  0  0  0  0  0  0  0
   -4.7341    0.5325   -1.6138 C   0  0  0  0  0  0  0  0  0  0  0  0
   -4.9784    2.0131   -1.5993 C   0  0  0  0  0  0  0  0  0  0  0  0
   -4.9773    2.5917   -0.2191 C   0  0  0  0  0  0  0  0  0  0  0  0
   -5.2107    3.9715   -0.3197 O   0  0  0  0  0  0  0  0  0  0  0  0
   -6.0027    2.0546    0.6287 N   0  0  0  0  0  0  0  0  0  0  0  0
   -6.0192    0.6509    0.9719 C   0  0  0  0  0  0  0  0  0  0  0  0
   -6.8573    1.0565   -0.0984 C   0  0  0  0  0  0  0  0  0  0  0  0
   -8.3287    1.3910    0.0171 C   0  0  0  0  0  2  0  0  0  0  0  0
  1  2  1  0
  2  3  1  0
  2  4  1  0
  4  5  1  0
  5  6  1  0
  6  7  1  0
  7  8  1  0
  7  9  1  0
  9 10  1  0
 10 11  1  0
 11 12  1  0
 12 13  1  6
 12 14  1  0
 14 15  1  0
 15 16  1  0
 15 17  1  0
 17 18  1  0
 18 19  1  0
 19 20  1  0
 19 21  1  0
 21 22  1  0
 22 23  1  0
 23 24  1  0
 23 25  1  0
 25 26  1  0
 26 27  1  0
 27 28  1  0
 27 25  1  0
M  RAD  2   9   2  28   3
M  END
$$$$
