
     RDKit          3D

 24 25  0  0  0  0  0  0  0  0999 V2000
   -4.4731    2.2503    0.3236 C   0  0  0  0  0  0  0  0  0  0  0  0
   -4.6480    0.9361    0.4416 O   0  0  0  0  0  0  0  0  0  0  0  0
   -4.1154    0.1512   -0.4214 C   0  0  0  0  0  3  0  0  0  0  0  0
   -2.7874   -0.0014   -0.7094 O   0  0  0  0  0  0  0  0  0  0  0  0
   -1.9284    0.9033   -0.0222 C   0  0  2  0  0  0  0  0  0  0  0  0
   -1.3536    1.7655   -1.2686 C   0  0  0  0  0  0  0  0  0  0  0  0
   -0.6397    0.0002    0.2002 C   0  0  2  0  0  0  0  0  0  0  0  0
   -0.1670   -0.6063   -1.0666 C   0  0  1  0  0  0  0  0  0  0  0  0
    0.9694   -0.0353   -1.7849 C   0  0  0  0  0  3  0  0  0  0  0  0
    1.5405    1.2932   -1.2013 C   0  0  0  0  0  0  0  0  0  0  0  0
    2.8040    0.8111   -0.4448 C   0  0  0  0  0  0  0  0  0  0  0  0
    3.1600   -0.5663   -0.5526 C   0  0  0  0  0  0  0  0  0  0  0  0
    3.9940    1.7171   -0.8548 C   0  0  0  0  0  0  0  0  0  0  0  0
    3.6734    3.1704   -0.4916 C   0  0  0  0  0  0  0  0  0  0  0  0
    2.6040    1.2803    0.9139 O   0  0  0  0  0  0  0  0  0  0  0  0
    1.5837    0.5958    1.5961 C   0  0  0  0  0  2  0  0  0  0  0  0
    1.7086   -0.7434    1.2345 O   0  0  0  0  0  0  0  0  0  0  0  0
    0.6538   -1.4266    1.7915 C   0  0  2  0  0  0  0  0  0  0  0  0
    0.7334   -2.7492    1.3956 O   0  0  0  0  0  0  0  0  0  0  0  0
   -0.6656   -0.7684    1.4125 C   0  0  1  0  0  0  0  0  0  0  0  0
   -1.0531    0.1328    2.5938 C   0  0  0  0  0  2  0  0  0  0  0  0
   -0.0051   -2.1133   -0.9578 C   0  0  0  0  0  0  0  0  0  0  0  0
   -1.0772   -2.7220   -0.1331 C   0  0  0  0  0  0  0  0  0  0  0  0
   -0.5112   -3.2752    1.1529 C   0  0  0  0  0  3  0  0  0  0  0  0
  1  2  1  0
  2  3  1  0
  3  4  1  0
  4  5  1  0
  5  6  1  6
  7  5  1  6
  7  8  1  0
  8  9  1  1
  9 10  1  0
 10 11  1  0
 11 12  1  0
 11 13  1  0
 13 14  1  0
 11 15  1  0
 15 16  1  0
 16 17  1  0
 18 17  1  6
 18 19  1  0
 18 20  1  0
 20 21  1  1
  8 22  1  0
 22 23  1  0
 23 24  1  0
 20  7  1  0
 24 19  1  0
M  RAD  5   3   2   9   2  16   3  21   3  24   2
M  END
$$$$
