
     RDKit          3D

 23 25  0  0  0  0  0  0  0  0999 V2000
    4.1361   -0.2379    0.2967 C   0  0  0  0  0  0  0  0  0  0  0  0
    4.2942    0.0923   -1.1668 C   0  0  0  0  0  0  0  0  0  0  0  0
    4.9572   -1.0395   -1.9191 C   0  0  0  0  0  0  0  0  0  0  0  0
    3.0074    0.5057   -1.7741 C   0  0  0  0  0  0  0  0  0  0  0  0
    1.8484    0.4577   -1.1303 C   0  0  0  0  0  0  0  0  0  0  0  0
    1.7331   -0.0117    0.2497 C   0  0  0  0  0  0  0  0  0  0  0  0
    1.0583   -1.3242    0.3659 C   0  0  2  0  0  0  0  0  0  0  0  0
    0.8401   -1.9657   -0.9790 C   0  0  0  0  0  0  0  0  0  0  0  0
   -0.1788   -1.3096    1.2202 C   0  0  2  0  0  0  0  0  0  0  0  0
   -0.2129   -2.4963    1.9508 O   0  0  0  0  0  0  0  0  0  0  0  0
   -1.4467   -1.2392    0.4172 C   0  0  0  0  0  2  0  0  0  0  0  0
   -1.5307    0.0142   -0.4256 C   0  0  1  0  0  0  0  0  0  0  0  0
   -2.2513   -0.2380   -1.7313 C   0  0  0  0  0  0  0  0  0  0  0  0
   -2.1737    1.1538    0.3419 C   0  0  0  0  0  0  0  0  0  0  0  0
   -3.6393    1.2491   -0.0710 C   0  0  0  0  0  3  0  0  0  0  0  0
   -4.2644   -0.0930   -0.2808 C   0  0  0  0  0  0  0  0  0  0  0  0
   -3.5810   -0.9026   -1.3678 C   0  0  0  0  0  0  0  0  0  0  0  0
   -3.2804   -2.1501   -0.7911 O   0  0  0  0  0  0  0  0  0  0  0  0
   -1.5502    2.3944   -0.1330 N   0  0  0  0  0  0  0  0  0  0  0  0
   -0.4052    2.7527    0.6797 C   0  0  0  0  0  3  0  0  0  0  0  0
    0.0785    1.5765    1.5002 C   0  0  0  0  0  0  0  0  0  0  0  0
    1.3413    1.8817    2.2613 C   0  0  0  0  0  0  0  0  0  0  0  0
    1.2198    0.9298    1.1450 C   0  0  0  0  0  0  0  0  0  0  0  0
  1  2  1  0
  2  3  1  0
  2  4  1  0
  4  5  2  3
  5  6  1  0
  6  7  1  0
  7  8  1  6
  7  9  1  0
  9 10  1  6
  9 11  1  0
 12 11  1  1
 12 13  1  0
 12 14  1  0
 14 15  1  0
 15 16  1  0
 16 17  1  0
 17 18  1  0
 14 19  1  0
 19 20  1  0
 20 21  1  0
 21 22  1  0
 22 23  2  0
 23  6  1  0
 17 13  1  0
 23 21  1  0
M  RAD  3  11   3  15   2  20   2
M  END
$$$$
