
     RDKit          2D

100100  0  0  0  0  0  0  0  0999 V2000
    4.6120   15.6941    0.0000 C   0  0  0  0  0  0  0  0  0  0  0  0
    5.6157   14.5793    0.0000 C   0  0  0  0  0  0  0  0  0  0  0  0
    7.0829   14.8912    0.0000 C   0  0  0  0  0  0  0  0  0  0  0  0
    5.1522   13.1528    0.0000 C   0  0  0  0  0  0  0  0  0  0  0  0
    6.1559   12.0380    0.0000 C   0  0  0  0  0  0  0  0  0  0  0  0
    5.6923   10.6115    0.0000 C   0  0  0  0  0  0  0  0  0  0  0  0
    6.6960    9.4967    0.0000 C   0  0  0  0  0  0  0  0  0  0  0  0
    8.1633    9.8086    0.0000 C   0  0  0  0  0  0  0  0  0  0  0  0
    6.2325    8.0701    0.0000 C   0  0  0  0  0  3  0  0  0  0  0  0
    4.7653    7.7583    0.0000 C   0  0  0  0  0  0  0  0  0  0  0  0
    4.3018    6.3317    0.0000 C   0  0  0  0  0  0  0  0  0  0  0  0
    2.8345    6.0198    0.0000 C   0  0  0  0  0  0  0  0  0  0  0  0
    1.8308    7.1345    0.0000 C   0  0  0  0  0  0  0  0  0  0  0  0
    2.3710    4.5932    0.0000 C   0  0  0  0  0  3  0  0  0  0  0  0
    3.3747    3.4785    0.0000 C   0  0  0  0  0  0  0  0  0  0  0  0
    2.9112    2.0519    0.0000 C   0  0  0  0  0  0  0  0  0  0  0  0
    1.4440    1.7401    0.0000 C   0  0  0  0  0  0  0  0  0  0  0  0
    3.9149    0.9372    0.0000 C   0  0  0  0  0  0  0  0  0  0  0  0
    5.3821    1.2491    0.0000 C   0  0  0  0  0  0  0  0  0  0  0  0
    6.3858    0.1344    0.0000 C   0  0  0  0  0  0  0  0  0  0  0  0
    7.8530    0.4462    0.0000 C   0  0  0  0  0  0  0  0  0  0  0  0
    7.8530    1.9462    0.0000 C   0  0  0  0  0  0  0  0  0  0  0  0
    8.4631    3.3166    0.0000 C   0  0  0  0  0  0  0  0  0  0  0  0
    9.5778    4.3203    0.0000 C   0  0  0  0  0  0  0  0  0  0  0  0
   11.0044    4.7838    0.0000 C   0  0  0  0  0  0  0  0  0  0  0  0
   12.4962    4.6270    0.0000 C   0  0  0  0  0  0  0  0  0  0  0  0
   12.9597    6.0536    0.0000 C   0  0  0  0  0  0  0  0  0  0  0  0
   13.7952    3.8770    0.0000 C   0  0  0  0  0  0  0  0  0  0  0  0
   14.6769    2.6635    0.0000 C   0  0  0  0  0  0  0  0  0  0  0  0
   14.9888    1.1962    0.0000 C   0  0  0  0  0  0  0  0  0  0  0  0
   14.6769   -0.2710    0.0000 C   0  0  0  0  0  0  0  0  0  0  0  0
   13.7952   -1.4845    0.0000 C   0  0  0  0  0  0  0  0  0  0  0  0
   12.4962   -2.2345    0.0000 C   0  0  0  0  0  0  0  0  0  0  0  0
   11.0044   -2.3913    0.0000 C   0  0  0  0  0  0  0  0  0  0  0  0
    9.5778   -1.9278    0.0000 C   0  0  0  0  0  3  0  0  0  0  0  0
    8.4631   -0.9241    0.0000 C   0  0  0  0  0  0  0  0  0  0  0  0
    7.2496   -1.8058    0.0000 C   0  0  0  0  0  0  0  0  0  0  0  0
    7.4064   -3.2975    0.0000 C   0  0  0  0  0  0  0  0  0  0  0  0
    6.1929   -4.1792    0.0000 C   0  0  0  0  0  0  0  0  0  0  0  0
    6.3497   -5.6710    0.0000 C   0  0  0  0  0  0  0  0  0  0  0  0
    7.7200   -6.2811    0.0000 C   0  0  0  0  0  0  0  0  0  0  0  0
    7.8768   -7.7729    0.0000 C   0  0  0  0  0  0  0  0  0  0  0  0
    8.9335   -5.3994    0.0000 C   0  0  0  0  0  0  0  0  0  0  0  0
   10.3038   -6.0095    0.0000 C   0  0  0  0  0  0  0  0  0  0  0  0
   11.5173   -5.1279    0.0000 C   0  0  0  0  0  0  0  0  0  0  0  0
   12.8877   -5.7380    0.0000 C   0  0  0  0  0  0  0  0  0  0  0  0
   14.1012   -4.8563    0.0000 C   0  0  0  0  0  3  0  0  0  0  0  0
   15.4715   -5.4664    0.0000 C   0  0  0  0  0  0  0  0  0  0  0  0
   16.6850   -4.5847    0.0000 C   0  0  0  0  0  3  0  0  0  0  0  0
   18.0553   -5.1948    0.0000 C   0  0  0  0  0  0  0  0  0  0  0  0
   19.2689   -4.3131    0.0000 C   0  0  0  0  0  0  0  0  0  0  0  0
   20.6392   -4.9232    0.0000 C   0  0  0  0  0  0  0  0  0  0  0  0
   21.8527   -4.0416    0.0000 C   0  0  0  0  0  0  0  0  0  0  0  0
   20.7960   -6.4150    0.0000 C   0  0  0  0  0  0  0  0  0  0  0  0
   22.1663   -7.0251    0.0000 C   0  0  0  0  0  0  0  0  0  0  0  0
   22.3231   -8.5169    0.0000 C   0  0  0  0  0  0  0  0  0  0  0  0
   23.6934   -9.1270    0.0000 C   0  0  0  0  0  0  0  0  0  0  0  0
   24.9069   -8.2453    0.0000 F   0  0  0  0  0  0  0  0  0  0  0  0
   23.8502  -10.6188    0.0000 C   0  0  0  0  0  0  0  0  0  0  0  0
   25.2205  -11.2289    0.0000 C   0  0  0  0  0  0  0  0  0  0  0  0
   22.6367  -11.5005    0.0000 C   0  0  0  0  0  0  0  0  0  0  0  0
   22.7935  -12.9923    0.0000 C   0  0  0  0  0  0  0  0  0  0  0  0
   21.5799  -13.8739    0.0000 C   0  0  0  0  0  0  0  0  0  0  0  0
   21.7367  -15.3657    0.0000 C   0  0  0  0  0  0  0  0  0  0  0  0
   20.5232  -16.2474    0.0000 C   0  0  0  0  0  2  0  0  0  0  0  0
   23.1071  -15.9758    0.0000 C   0  0  0  0  0  0  0  0  0  0  0  0
   23.2639  -17.4676    0.0000 C   0  0  0  0  0  0  0  0  0  0  0  0
   24.6342  -18.0777    0.0000 C   0  0  0  0  0  3  0  0  0  0  0  0
   24.7910  -19.5695    0.0000 C   0  0  0  0  0  0  0  0  0  0  0  0
   26.1613  -20.1796    0.0000 C   0  0  0  0  0  3  0  0  0  0  0  0
   26.3181  -21.6714    0.0000 C   0  0  0  0  0  0  0  0  0  0  0  0
   27.6884  -22.2815    0.0000 C   0  0  0  0  0  0  0  0  0  0  0  0
   27.8452  -23.7733    0.0000 C   0  0  0  0  0  0  0  0  0  0  0  0
   29.2155  -24.3834    0.0000 C   0  0  0  0  0  0  0  0  0  0  0  0
   29.3723  -25.8752    0.0000 C   0  0  0  0  0  0  0  0  0  0  0  0
   30.7426  -26.4853    0.0000 C   0  0  0  0  0  2  0  0  0  0  0  0
   28.1588  -26.7568    0.0000 C   0  0  0  0  0  0  0  0  0  0  0  0
   28.3156  -28.2486    0.0000 C   0  0  0  0  0  0  0  0  0  0  0  0
   27.1020  -29.1303    0.0000 C   0  0  0  0  0  0  0  0  0  0  0  0
   27.2588  -30.6221    0.0000 C   0  0  0  0  0  0  0  0  0  0  0  0
   26.0453  -31.5038    0.0000 C   0  0  0  0  0  0  0  0  0  0  0  0
   28.6291  -31.2322    0.0000 C   0  0  0  0  0  0  0  0  0  0  0  0
   28.7859  -32.7240    0.0000 C   0  0  0  0  0  0  0  0  0  0  0  0
   30.1563  -33.3341    0.0000 C   0  0  0  0  0  3  0  0  0  0  0  0
   30.3131  -34.8259    0.0000 N   0  0  0  0  0  0  0  0  0  0  0  0
   29.0995  -35.7075    0.0000 N   0  0  0  0  0  0  0  0  0  0  0  0
   31.6834  -35.4360    0.0000 C   0  0  0  0  0  0  0  0  0  0  0  0
   31.8402  -36.9277    0.0000 C   0  0  0  0  0  0  0  0  0  0  0  0
   33.2105  -37.5378    0.0000 C   0  0  0  0  0  3  0  0  0  0  0  0
   33.3673  -39.0296    0.0000 N   0  0  0  0  0  0  0  0  0  0  0  0
   34.7376  -39.6397    0.0000 C   0  0  0  0  0  0  0  0  0  0  0  0
   34.8944  -41.1315    0.0000 C   0  0  0  0  0  0  0  0  0  0  0  0
   36.2647  -41.7416    0.0000 C   0  0  0  0  0  3  0  0  0  0  0  0
   36.4215  -43.2334    0.0000 C   0  0  0  0  0  0  0  0  0  0  0  0
   37.7918  -43.8435    0.0000 C   0  0  0  0  0  3  0  0  0  0  0  0
   37.9486  -45.3353    0.0000 C   0  0  0  0  0  3  0  0  0  0  0  0
   39.3189  -45.9454    0.0000 N   0  0  0  0  0  0  0  0  0  0  0  0
   39.4757  -47.4372    0.0000 C   0  0  0  0  0  0  0  0  0  0  0  0
   40.8460  -48.0473    0.0000 C   0  0  0  0  0  0  0  0  0  0  0  0
   41.0028  -49.5391    0.0000 C   0  0  0  0  0  0  0  0  0  0  0  0
  1  2  1  0
  2  3  1  0
  2  4  1  0
  4  5  1  0
  5  6  1  0
  6  7  1  0
  7  8  1  1
  7  9  1  0
  9 10  1  0
 10 11  1  0
 11 12  1  0
 12 13  1  1
 12 14  1  0
 14 15  1  0
 15 16  1  0
 16 17  1  0
 16 18  1  0
 18 19  1  0
 19 20  1  0
 20 21  1  0
 21 22  1  0
 22 23  1  0
 23 24  1  0
 24 25  1  0
 25 26  1  0
 26 27  1  0
 26 28  1  0
 28 29  1  0
 29 30  1  0
 30 31  1  0
 31 32  1  0
 32 33  1  0
 33 34  1  0
 34 35  1  0
 35 36  1  0
 36 37  2  3
 37 38  1  0
 38 39  1  0
 39 40  1  0
 40 41  1  0
 41 42  1  0
 41 43  1  0
 43 44  1  0
 44 45  1  0
 45 46  1  0
 46 47  1  0
 47 48  1  0
 48 49  1  0
 49 50  1  0
 50 51  1  0
 51 52  1  0
 52 53  1  0
 52 54  1  0
 54 55  1  0
 55 56  1  0
 56 57  1  0
 57 58  1  6
 57 59  1  0
 59 60  1  0
 59 61  1  0
 61 62  1  0
 62 63  1  0
 63 64  1  0
 64 65  1  0
 64 66  1  0
 66 67  1  0
 67 68  1  0
 68 69  1  0
 69 70  1  0
 70 71  1  0
 71 72  1  0
 72 73  1  0
 73 74  1  0
 74 75  1  0
 75 76  1  6
 75 77  1  0
 77 78  1  0
 78 79  1  0
 79 80  1  0
 80 81  1  1
 80 82  1  0
 82 83  1  0
 83 84  1  0
 84 85  1  0
 85 86  1  0
 85 87  1  0
 87 88  1  0
 88 89  1  0
 89 90  1  0
 90 91  1  0
 91 92  1  0
 92 93  1  0
 93 94  1  0
 94 95  1  0
 95 96  1  0
 96 97  1  0
 97 98  1  0
 98 99  1  0
 99100  1  0
 36 21  1  0
M  RAD  8   9   2  14   2  35   2  47   2  49   2  65   3  68   2  70   2
M  RAD  6  76   3  84   2  89   2  93   2  95   2  96   2
M  END
$$$$
