
     RDKit          3D

 30 30  0  0  0  0  0  0  0  0999 V2000
    7.6077   -0.1710   -0.0724 C   0  0  0  0  0  0  0  0  0  0  0  0
    6.2719    0.4122    0.3661 C   0  0  0  0  0  0  0  0  0  0  0  0
    6.4693    1.3126    1.5835 C   0  0  0  0  0  0  0  0  0  0  0  0
    5.3635   -0.7389    0.7372 C   0  0  0  0  0  0  0  0  0  0  0  0
    5.2247   -1.5950   -0.5240 C   0  0  0  0  0  0  0  0  0  0  0  0
    4.6262   -0.7352   -1.5996 C   0  0  0  0  0  0  0  0  0  0  0  0
    3.2636   -0.2586   -1.1038 C   0  0  1  0  0  0  0  0  0  0  0  0
    2.6342    0.6171   -2.1781 C   0  0  0  0  0  0  0  0  0  0  0  0
    2.3906   -1.4314   -0.7614 C   0  0  0  0  0  3  0  0  0  0  0  0
    1.0523   -0.8645   -0.2654 C   0  0  0  0  0  0  0  0  0  0  0  0
    0.1120   -1.9731    0.0995 C   0  0  0  0  0  0  0  0  0  0  0  0
   -1.3106   -1.6118    0.1841 C   0  0  0  0  0  3  0  0  0  0  0  0
   -2.0254   -2.0671    1.4147 C   0  0  0  0  0  0  0  0  0  0  0  0
   -2.0926   -1.8402   -1.0825 C   0  0  0  0  0  3  0  0  0  0  0  0
   -3.3487   -2.6330   -0.8287 C   0  0  0  0  0  0  0  0  0  0  0  0
   -4.4391   -1.6560   -0.4171 C   0  0  0  0  0  0  0  0  0  0  0  0
   -5.7405   -2.1163   -0.8134 N   0  0  0  0  0  1  0  0  0  0  0  0
   -4.1007   -0.3059   -1.0099 C   0  0  0  0  0  0  0  0  0  0  0  0
   -5.2044    0.6875   -0.8310 C   0  0  0  0  0  0  0  0  0  0  0  0
   -4.7202    1.9115   -0.0721 C   0  0  0  0  0  0  0  0  0  0  0  0
   -5.7922    2.3152    0.7368 O   0  0  0  0  0  0  0  0  0  0  0  0
   -3.5597    1.5500    0.8310 C   0  0  0  0  0  0  0  0  0  0  0  0
   -2.2748    2.1384    0.2860 C   0  0  0  0  0  0  0  0  0  0  0  0
   -2.0449    1.7259   -1.1593 C   0  0  0  0  0  0  0  0  0  0  0  0
   -2.2605    2.9704   -2.0093 C   0  0  0  0  0  0  0  0  0  0  0  0
   -0.5952    1.3105   -1.3832 C   0  0  0  0  0  0  0  0  0  0  0  0
    0.2086    1.9511   -0.3906 N   0  0  0  0  0  0  0  0  0  0  0  0
    0.8850    1.3550    0.6744 C   0  0  0  0  0  0  0  0  0  0  0  0
    1.2835    0.1125    0.7845 C   0  0  0  0  0  0  0  0  0  0  0  0
    2.1163   -0.3718    2.2409 Cl  0  0  0  0  0  0  0  0  0  0  0  0
  1  2  1  0
  2  3  1  0
  2  4  1  0
  4  5  1  0
  5  6  1  0
  6  7  1  0
  7  8  1  6
  7  9  1  0
  9 10  1  0
 10 11  1  0
 11 12  1  0
 12 13  1  0
 12 14  1  0
 14 15  1  0
 15 16  1  0
 16 17  1  0
 16 18  1  0
 18 19  1  0
 19 20  1  0
 20 21  1  0
 20 22  1  0
 22 23  1  0
 23 24  1  0
 24 25  1  0
 24 26  1  0
 26 27  1  0
 27 28  1  0
 28 29  2  3
 29 30  1  0
 29 10  1  0
M  CHG  1  17   1
M  RAD  4   9   2  12   2  14   2  17   2
M  END
$$$$
