
     RDKit          2D

 61 60  0  0  0  0  0  0  0  0999 V2000
   11.6913   15.7500    0.0000 O   0  0  0  0  0  0  0  0  0  0  0  0
   11.6913   14.2500    0.0000 C   0  0  0  0  0  0  0  0  0  0  0  0
   10.3923   13.5000    0.0000 C   0  0  0  0  0  3  0  0  0  0  0  0
   10.3923   12.0000    0.0000 N   0  0  0  0  0  0  0  0  0  0  0  0
    9.0933   11.2500    0.0000 C   0  0  0  0  0  0  0  0  0  0  0  0
    7.7942   12.0000    0.0000 C   0  0  0  0  0  0  0  0  0  0  0  0
    7.7942   13.5000    0.0000 O   0  0  0  0  0  0  0  0  0  0  0  0
    9.0933    9.7500    0.0000 C   0  0  0  0  0  0  0  0  0  0  0  0
    7.7942    9.0000    0.0000 O   0  0  0  0  0  0  0  0  0  0  0  0
   10.3923    9.0000    0.0000 C   0  0  0  0  0  0  0  0  0  0  0  0
   11.6913    9.7500    0.0000 O   0  0  0  0  0  0  0  0  0  0  0  0
   10.3923    7.5000    0.0000 O   0  0  0  0  0  0  0  0  0  0  0  0
   11.6913    6.7500    0.0000 C   0  0  0  0  0  0  0  0  0  0  0  0
   12.9904    7.5000    0.0000 C   0  0  0  0  0  0  0  0  0  0  0  0
   12.9904    9.0000    0.0000 O   0  0  0  0  0  0  0  0  0  0  0  0
   14.2894    9.7500    0.0000 O   0  0  0  0  0  0  0  0  0  0  0  0
   14.2894   11.2500    0.0000 C   0  0  0  0  0  0  0  0  0  0  0  0
   15.5885   12.0000    0.0000 O   0  0  0  0  0  0  0  0  0  0  0  0
   15.5885   13.5000    0.0000 C   0  0  0  0  0  0  0  0  0  0  0  0
   16.8875   14.2500    0.0000 C   0  0  0  0  0  0  0  0  0  0  0  0
   16.8875   15.7500    0.0000 O   0  0  0  0  0  0  0  0  0  0  0  0
   18.1865   16.5000    0.0000 C   0  0  0  0  0  3  0  0  0  0  0  0
   18.1865   18.0000    0.0000 O   0  0  0  0  0  0  0  0  0  0  0  0
   11.6913    5.2500    0.0000 C   0  0  0  0  0  0  0  0  0  0  0  0
   12.9904    4.5000    0.0000 O   0  0  0  0  0  0  0  0  0  0  0  0
   10.3923    4.5000    0.0000 C   0  0  0  0  0  0  0  0  0  0  0  0
    9.0933    5.2500    0.0000 O   0  0  0  0  0  0  0  0  0  0  0  0
   10.3923    3.0000    0.0000 C   0  0  0  0  0  0  0  0  0  0  0  0
    9.0933    2.2500    0.0000 O   0  0  0  0  0  0  0  0  0  0  0  0
    9.0933    0.7500    0.0000 C   0  0  0  0  0  0  0  0  0  0  0  0
   10.3923   -0.0000    0.0000 O   0  0  0  0  0  0  0  0  0  0  0  0
    7.7942   -0.0000    0.0000 O   0  0  0  0  0  0  0  0  0  0  0  0
    6.4952    0.7500    0.0000 C   0  0  0  0  0  0  0  0  0  0  0  0
    5.1962   -0.0000    0.0000 N   0  0  0  0  0  4  0  0  0  0  0  0
    5.1962   -1.5000    0.0000 O   0  0  0  0  0  0  0  0  0  0  0  0
    6.4952   -2.2500    0.0000 C   0  0  0  0  0  0  0  0  0  0  0  0
    6.4952   -3.7500    0.0000 O   0  0  0  0  0  0  0  0  0  0  0  0
    7.7942   -4.5000    0.0000 O   0  0  0  0  0  0  0  0  0  0  0  0
    3.8971    0.7500    0.0000 C   0  0  0  0  0  0  0  0  0  0  0  0
    3.8971    2.2500    0.0000 C   0  0  0  0  0  0  0  0  0  0  0  0
    2.5981    3.0000    0.0000 O   0  0  0  0  0  0  0  0  0  0  0  0
    2.5981    4.5000    0.0000 C   0  0  0  0  0  2  0  0  0  0  0  0
    2.5981   -0.0000    0.0000 O   0  0  0  0  0  0  0  0  0  0  0  0
    2.5981   -1.5000    0.0000 O   0  0  0  0  0  0  0  0  0  0  0  0
    1.2990   -2.2500    0.0000 C   0  0  0  0  0  0  0  0  0  0  0  0
    1.2990   -3.7500    0.0000 O   0  0  0  0  0  0  0  0  0  0  0  0
    0.0000   -4.5000    0.0000 C   0  0  0  0  0  0  0  0  0  0  0  0
    0.0000   -6.0000    0.0000 O   0  0  0  0  0  0  0  0  0  0  0  0
    1.2990   -6.7500    0.0000 O   0  0  0  0  0  0  0  0  0  0  0  0
    2.5981   -6.0000    0.0000 C   0  0  0  0  0  0  0  0  0  0  0  0
   -1.2990   -3.7500    0.0000 O   0  0  0  0  0  0  0  0  0  0  0  0
   -1.2990   -2.2500    0.0000 C   0  0  0  0  0  0  0  0  0  0  0  0
   -2.5981   -1.5000    0.0000 O   0  0  0  0  0  0  0  0  0  0  0  0
   -2.5981   -0.0000    0.0000 O   0  0  0  0  0  0  0  0  0  0  0  0
   -3.8971    0.7500    0.0000 C   0  0  0  0  0  0  0  0  0  0  0  0
   -3.8971    2.2500    0.0000 O   0  0  0  0  0  0  0  0  0  0  0  0
   -5.1962    3.0000    0.0000 O   0  0  0  0  0  0  0  0  0  0  0  0
   -5.1962    4.5000    0.0000 O   0  0  0  0  0  0  0  0  0  0  0  0
   -6.4952    5.2500    0.0000 C   0  0  0  0  0  0  0  0  0  0  0  0
   -6.4952    6.7500    0.0000 O   0  0  0  0  0  0  0  0  0  0  0  0
   -7.7942    4.5000    0.0000 O   0  0  0  0  0  0  0  0  0  0  0  0
  1  2  1  0
  2  3  1  0
  3  4  1  0
  4  5  1  0
  5  6  1  1
  6  7  1  0
  5  8  1  0
  8  9  1  6
  8 10  1  0
 10 11  1  6
 10 12  1  0
 12 13  1  0
 13 14  1  1
 14 15  1  0
 15 16  1  0
 16 17  1  0
 17 18  1  0
 18 19  1  0
 19 20  1  0
 20 21  1  0
 21 22  1  0
 22 23  1  0
 13 24  1  0
 24 25  1  6
 24 26  1  0
 26 27  1  1
 26 28  1  0
 28 29  1  0
 29 30  1  0
 30 31  1  6
 30 32  1  0
 32 33  1  0
 33 34  2  3
 34 35  1  0
 35 36  1  0
 36 37  1  0
 37 38  1  0
 34 39  1  0
 39 40  1  6
 40 41  1  0
 41 42  1  0
 39 43  1  0
 43 44  1  0
 44 45  1  0
 45 46  1  0
 47 46  1  6
 47 48  1  0
 48 49  1  0
 49 50  1  0
 47 51  1  0
 51 52  1  0
 52 53  1  0
 53 54  1  0
 54 55  1  0
 55 56  1  0
 56 57  1  0
 57 58  1  0
 58 59  1  0
 59 60  1  0
 59 61  1  0
M  CHG  1  34   1
M  RAD  3   3   2  22   2  42   3
M  END
$$$$
