
     RDKit          3D

 48 49  0  0  0  0  0  0  0  0999 V2000
  -10.8992    1.3722   -0.2478 C   0  0  0  0  0  0  0  0  0  0  0  0
   -9.6674    2.1037   -0.7349 C   0  0  0  0  0  0  0  0  0  0  0  0
   -9.7491    3.5464   -0.2443 C   0  0  0  0  0  0  0  0  0  0  0  0
   -8.4757    1.4661   -0.0672 C   0  0  0  0  0  0  0  0  0  0  0  0
   -8.6619    1.6223    1.4474 C   0  0  0  0  0  0  0  0  0  0  0  0
   -7.4939    0.9999    2.1785 C   0  0  0  0  0  0  0  0  0  0  0  0
   -7.3768   -0.4843    1.8590 C   0  0  1  0  0  0  0  0  0  0  0  0
   -8.6253   -1.2078    2.2701 C   0  0  0  0  0  2  0  0  0  0  0  0
   -7.1096   -0.6501    0.3752 C   0  0  0  0  0  0  0  0  0  0  0  0
   -5.8357    0.0342   -0.0302 C   0  0  0  0  0  0  0  0  0  0  0  0
   -4.6539   -0.5206    0.7015 C   0  0  0  0  0  3  0  0  0  0  0  0
   -3.3920    0.1930    0.2688 C   0  0  0  0  0  0  0  0  0  0  0  0
   -2.1743   -0.3387    0.9846 C   0  0  0  0  0  0  0  0  0  0  0  0
   -1.9771   -1.8126    0.7073 C   0  0  0  0  0  0  0  0  0  0  0  0
   -1.7993   -1.9847   -0.7900 C   0  0  0  0  0  0  0  0  0  0  0  0
   -1.5863   -3.3692   -1.3050 C   0  0  0  0  0  3  0  0  0  0  0  0
   -0.3268   -3.9784   -0.6925 C   0  0  0  0  0  0  0  0  0  0  0  0
   -0.4914   -4.0215    0.8172 C   0  0  0  0  0  0  0  0  0  0  0  0
    0.7642   -4.6264    1.3997 C   0  0  0  0  0  3  0  0  0  0  0  0
    1.6720   -4.9550    0.4148 O   0  0  0  0  0  0  0  0  0  0  0  0
    1.4856   -6.2703   -0.0441 C   0  0  0  0  0  3  0  0  0  0  0  0
    0.2032   -6.8074    0.5873 C   0  0  0  0  0  0  0  0  0  0  0  0
   -2.4406   -1.0311   -1.7288 C   0  0  0  0  0  0  0  0  0  0  0  0
   -1.0193   -0.8210   -1.4131 C   0  0  2  0  0  0  0  0  0  0  0  0
    0.0667   -1.2295   -2.2999 C   0  0  0  0  0  0  0  0  0  0  0  0
    1.2884   -1.0800   -1.9216 N   0  0  0  0  0  4  0  0  0  0  0  0
    2.3713   -1.4579   -2.7401 N   0  0  0  0  0  0  0  0  0  0  0  0
    1.5748   -0.5087   -0.6211 C   0  0  0  0  0  0  0  0  0  0  0  0
    2.3737    0.7453   -0.7587 C   0  0  0  0  0  3  0  0  0  0  0  0
    1.5784    1.9758   -0.8778 C   0  0  1  0  0  0  0  0  0  0  0  0
    0.6603    2.1752    0.1436 O   0  0  0  0  0  1  0  0  0  0  0  0
    2.4161    3.2134   -1.0126 C   0  0  0  0  0  0  0  0  0  0  0  0
    3.1773    3.2742    0.1628 F   0  0  0  0  0  0  0  0  0  0  0  0
    1.5563    4.4688   -0.9813 C   0  0  0  0  0  2  0  0  0  0  0  0
    3.2415    3.2405   -2.2156 C   0  0  0  0  0  0  0  0  0  0  0  0
    4.3283    2.3300   -2.4924 C   0  0  0  0  0  0  0  0  0  0  0  0
    5.5556    2.3698   -1.7213 C   0  0  0  0  0  0  0  0  0  0  0  0
    5.5893    2.1379   -0.3206 C   0  0  0  0  0  0  0  0  0  0  0  0
    5.2112    0.9498    0.2190 O   0  0  0  0  0  0  0  0  0  0  0  0
    6.4100    0.2032    0.1532 C   0  0  0  0  0  0  0  0  0  0  0  0
    7.4335    1.1442    0.7476 C   0  0  0  0  0  3  0  0  0  0  0  0
    6.8576    2.5105    0.4016 C   0  0  1  0  0  0  0  0  0  0  0  0
    7.7475    3.2539   -0.5516 C   0  0  0  0  0  0  0  0  0  0  0  0
    8.9340    3.6413    0.0064 F   0  0  0  0  0  0  0  0  0  0  0  0
    6.2214   -1.0455    0.9476 C   0  0  0  0  0  0  0  0  0  0  0  0
    5.9057   -0.8213    2.3896 C   0  0  0  0  0  3  0  0  0  0  0  0
    4.6373   -0.0333    2.6140 C   0  0  0  0  0  0  0  0  0  0  0  0
    4.4945    0.0835    4.0157 O   0  0  0  0  0  1  0  0  0  0  0  0
  1  2  1  0
  2  3  1  0
  2  4  1  0
  4  5  1  0
  5  6  1  0
  6  7  1  0
  7  8  1  6
  7  9  1  0
  9 10  1  0
 10 11  1  0
 11 12  1  0
 12 13  1  0
 13 14  1  0
 14 15  1  0
 15 16  1  0
 16 17  1  0
 17 18  1  0
 18 19  1  0
 19 20  1  0
 20 21  1  0
 21 22  1  0
 15 23  1  0
 15 24  1  0
 24 25  1  6
 25 26  2  3
 26 27  1  0
 26 28  1  0
 28 29  1  0
 29 30  1  0
 30 31  1  1
 30 32  1  0
 32 33  1  0
 32 34  1  0
 32 35  1  0
 35 36  1  0
 36 37  1  0
 37 38  1  0
 38 39  1  0
 39 40  1  0
 40 41  1  0
 41 42  1  0
 42 43  1  6
 43 44  1  0
 40 45  1  0
 45 46  1  0
 46 47  1  0
 47 48  1  0
 24 23  1  0
 42 38  1  0
M  RAD  8   8   3  11   2  16   2  19   2  21   2  29   2  34   3  41   2
M  CHG  3  26   1  31  -1  48  -1
M  RAD  1  46   2
M  END
$$$$
