
     RDKit          3D

 32 33  0  0  0  0  0  0  0  0999 V2000
    4.0769    1.7382    1.5923 C   0  0  0  0  0  0  0  0  0  0  0  0
    3.3744    1.5009    0.2797 C   0  0  1  0  0  0  0  0  0  0  0  0
    4.3433    1.8041   -0.8418 C   0  0  0  0  0  0  0  0  0  0  0  0
    5.6033    0.9950   -0.5225 C   0  0  2  0  0  0  0  0  0  0  0  0
    6.6487    1.4167   -1.3121 O   0  0  0  0  0  0  0  0  0  0  0  0
    5.2733   -0.4423   -0.7269 C   0  0  2  0  0  0  0  0  0  0  0  0
    5.0877   -0.7642   -2.0505 O   0  0  0  0  0  0  0  0  0  0  0  0
    4.1266   -0.8937    0.1085 C   0  0  1  0  0  0  0  0  0  0  0  0
    4.5466   -1.3566    1.3729 O   0  0  0  0  0  0  0  0  0  0  0  0
    2.9686    0.0441    0.1868 C   0  0  1  0  0  0  0  0  0  0  0  0
    2.2802   -0.2453    1.4582 N   0  0  0  0  0  0  0  0  0  0  0  0
    1.0928    0.5495    1.6022 C   0  0  0  0  0  3  0  0  0  0  0  0
    0.2614    0.4487    0.3398 C   0  0  0  0  0  0  0  0  0  0  0  0
   -0.6877   -0.7158    0.5121 C   0  0  2  0  0  0  0  0  0  0  0  0
   -1.4763   -0.4188    1.6353 O   0  0  0  0  0  0  0  0  0  0  0  0
    0.0423   -1.9162    0.7682 N   0  0  0  0  0  0  0  0  0  0  0  0
    0.3850   -2.6519   -0.3460 N   0  0  0  0  0  0  0  0  0  0  0  0
   -0.6210   -2.9079   -1.1860 O   0  0  0  0  0  0  0  0  0  0  0  0
   -1.5302   -3.7122   -0.7115 O   0  0  0  0  0  0  0  0  0  0  0  0
   -2.5414   -3.1145   -0.0223 C   0  0  2  0  0  0  0  0  0  0  0  0
   -3.7265   -3.8509   -0.2668 O   0  0  0  0  0  0  0  0  0  0  0  0
   -2.8123   -1.6989   -0.3382 C   0  0  2  0  0  0  0  0  0  0  0  0
   -3.8745   -1.4689   -1.2746 N   0  0  0  0  0  0  0  0  0  0  0  0
   -1.6053   -0.8665   -0.6824 C   0  0  1  0  0  0  0  0  0  0  0  0
   -2.1349    0.4632   -1.0352 N   0  0  0  0  0  0  0  0  0  0  0  0
   -2.7974    0.8729    0.0767 O   0  0  0  0  0  0  0  0  0  0  0  0
   -3.5206    1.9847   -0.1077 N   0  0  0  0  0  0  0  0  0  0  0  0
   -3.3209    2.7603    1.0048 O   0  0  0  0  0  0  0  0  0  0  0  0
   -4.8953    1.6946   -0.1279 N   0  0  0  0  0  0  0  0  0  0  0  0
   -5.5837    2.9470    0.1899 C   0  0  0  0  0  3  0  0  0  0  0  0
   -4.7679    4.0246   -0.1535 O   0  0  0  0  0  0  0  0  0  0  0  0
   -4.2153    3.7802   -1.4091 C   0  0  0  0  0  2  0  0  0  0  0  0
  2  1  1  1
  2  3  1  0
  3  4  1  0
  4  5  1  6
  4  6  1  0
  6  7  1  6
  6  8  1  0
  8  9  1  1
  8 10  1  0
 10 11  1  1
 11 12  1  0
 12 13  1  0
 13 14  1  0
 14 15  1  1
 14 16  1  0
 16 17  1  0
 17 18  1  0
 18 19  1  0
 19 20  1  0
 20 21  1  6
 20 22  1  0
 22 23  1  6
 22 24  1  0
 24 25  1  1
 25 26  1  0
 26 27  1  0
 27 28  1  0
 27 29  1  0
 29 30  1  0
 30 31  1  0
 31 32  1  0
 10  2  1  0
 24 14  1  0
M  RAD  3  12   2  30   2  32   3
M  END
$$$$
