
     RDKit          3D

 20 19  0  0  0  0  0  0  0  0999 V2000
    6.3621   -0.4918   -0.2932 C   0  0  0  0  0  0  0  0  0  0  0  0
    5.0442    0.2322   -0.5291 C   0  0  0  0  0  0  0  0  0  0  0  0
    5.2454    1.7225   -0.4774 C   0  0  0  0  0  0  0  0  0  0  0  0
    3.9885   -0.1949    0.4440 C   0  0  0  0  0  0  0  0  0  0  0  0
    3.6956   -1.6573    0.3578 C   0  0  0  0  0  0  0  0  0  0  0  0
    2.6349   -2.0858    1.3357 C   0  0  0  0  0  0  0  0  0  0  0  0
    1.3510   -1.2938    0.9966 C   0  0  1  0  0  0  0  0  0  0  0  0
    1.7764    0.1695    1.1722 C   0  0  0  0  0  0  0  0  0  0  0  0
    1.0108   -1.6193   -0.4005 C   0  0  0  0  0  3  0  0  0  0  0  0
   -0.2145   -1.1578   -1.0088 C   0  0  0  0  0  0  0  0  0  0  0  0
   -0.5632    0.2525   -1.1247 C   0  0  0  0  0  0  0  0  0  0  0  0
   -0.7047    0.9222    0.1997 C   0  0  1  0  0  0  0  0  0  0  0  0
   -1.0686    2.3937    0.0662 C   0  0  0  0  0  0  0  0  0  0  0  0
   -1.7766    0.1933    0.9964 C   0  0  0  0  0  0  0  0  0  0  0  0
   -3.0545    0.2691    0.2284 C   0  0  0  0  0  0  0  0  0  0  0  0
   -2.9877   -0.3544   -1.1341 C   0  0  0  0  0  0  0  0  0  0  0  0
   -4.2456   -0.1975    1.0233 C   0  0  0  0  0  0  0  0  0  0  0  0
   -5.5279   -0.1354    0.2922 C   0  0  0  0  0  0  0  0  0  0  0  0
   -5.9311    1.2270   -0.1797 C   0  0  0  0  0  0  0  0  0  0  0  0
   -5.0344    1.8060   -1.0403 F   0  0  0  0  0  0  0  0  0  0  0  0
  1  2  1  0
  2  3  1  0
  2  4  1  0
  4  5  1  0
  5  6  1  0
  6  7  1  0
  7  8  1  6
  7  9  1  0
  9 10  1  0
 10 11  1  0
 11 12  1  0
 12 13  1  6
 12 14  1  0
 14 15  1  0
 15 16  1  0
 15 17  1  0
 17 18  1  0
 18 19  1  0
 19 20  1  0
M  RAD  1   9   2
M  END
$$$$
