
     RDKit          3D

 29 29  0  0  0  0  0  0  0  0999 V2000
    8.1357    1.9402   -0.9044 C   0  0  0  0  0  0  0  0  0  0  0  0
    7.6415    1.2329    0.3494 C   0  0  0  0  0  0  0  0  0  0  0  0
    6.9184    2.2221    1.2560 C   0  0  0  0  0  0  0  0  0  0  0  0
    6.6758    0.1603   -0.1067 C   0  0  0  0  0  0  0  0  0  0  0  0
    5.5237    0.8354   -0.8552 C   0  0  0  0  0  0  0  0  0  0  0  0
    4.5415   -0.2310   -1.3246 C   0  0  0  0  0  0  0  0  0  0  0  0
    4.0014   -0.9778   -0.1484 C   0  0  1  0  0  0  0  0  0  0  0  0
    5.1207   -1.6525    0.6149 C   0  0  0  0  0  0  0  0  0  0  0  0
    3.1676   -0.0777    0.7066 C   0  0  0  0  0  3  0  0  0  0  0  0
    2.6146   -0.8171    1.9023 C   0  0  0  0  0  0  0  0  0  0  0  0
    1.7391   -1.9795    1.4866 C   0  0  0  0  0  0  0  0  0  0  0  0
    0.5904   -1.4495    0.6761 C   0  0  2  0  0  0  0  0  0  0  0  0
    1.0600   -0.7491   -0.5348 C   0  0  0  0  0  0  0  0  0  0  0  0
   -0.3462   -0.7156    1.5670 C   0  0  0  0  0  3  0  0  0  0  0  0
   -1.5766   -1.6086    1.7641 C   0  0  0  0  0  0  0  0  0  0  0  0
   -2.6204   -1.0846    0.7863 C   0  0  0  0  0  0  0  0  0  0  0  0
   -2.0063   -0.1797   -0.2423 C   0  0  2  0  0  0  0  0  0  0  0  0
   -3.2200    0.9351   -0.8993 S   0  0  0  0  0  2  0  0  0  0  0  0
   -3.7490    2.1417    0.2880 C   0  0  0  0  0  0  0  0  0  0  0  0
   -4.5129    1.7190    1.4561 C   0  0  0  0  0  0  0  0  0  0  0  0
   -3.9151    0.7671    2.4141 C   0  0  0  0  0  0  0  0  0  0  0  0
   -5.8938    1.2556    1.0723 C   0  0  0  0  0  0  0  0  0  0  0  0
   -5.7593    0.0878    0.1217 C   0  0  0  0  0  0  0  0  0  0  0  0
   -7.1038   -0.3665   -0.2544 C   0  0  0  0  0  0  0  0  0  0  0  0
   -7.2494   -1.4221   -1.1256 O   0  0  0  0  0  0  0  0  0  0  0  0
   -8.4140    0.3635    0.3467 S   0  0  0  0  0  0  0  0  0  0  0  0
   -1.2699   -1.0093   -1.2482 C   0  0  0  0  0  0  0  0  0  0  0  0
    0.0548   -0.3364   -1.5341 C   0  0  0  0  0  0  0  0  0  0  0  0
   -0.1485    0.9963   -1.6627 F   0  0  0  0  0  0  0  0  0  0  0  0
  1  2  1  0
  2  3  1  0
  2  4  1  0
  4  5  1  0
  5  6  1  0
  6  7  1  0
  7  8  1  1
  7  9  1  0
  9 10  1  0
 10 11  1  0
 12 11  1  1
 12 13  1  0
 12 14  1  0
 14 15  1  0
 15 16  1  0
 16 17  1  0
 17 18  1  6
 18 19  1  0
 19 20  1  0
 20 21  1  0
 20 22  1  0
 22 23  1  0
 23 24  1  0
 24 25  1  0
 24 26  2  0
 17 27  1  0
 27 28  1  0
 28 29  1  0
 28 13  1  0
M  CHG  1  18   1
M  RAD  3   9   2  14   2  18   2
M  END
$$$$
