
     RDKit          3D

 29 29  0  0  0  0  0  0  0  0999 V2000
    3.0811    4.2461    0.7021 C   0  0  0  0  0  0  0  0  0  0  0  0
    3.9599    3.1489    0.1549 C   0  0  0  0  0  0  0  0  0  0  0  0
    5.0054    2.8236    1.2261 C   0  0  0  0  0  0  0  0  0  0  0  0
    3.1431    1.8677   -0.0367 C   0  0  0  0  0  0  0  0  0  0  0  0
    3.9814    0.7578   -0.5779 C   0  0  0  0  0  0  0  0  0  0  0  0
    5.1200    0.3776    0.2721 C   0  0  0  0  0  0  0  0  0  0  0  0
    5.9836   -0.7059   -0.2014 C   0  0  1  0  0  0  0  0  0  0  0  0
    7.1240   -0.9131    0.8226 C   0  0  0  0  0  0  0  0  0  0  0  0
    5.3405   -2.0584   -0.4594 C   0  0  0  0  0  3  0  0  0  0  0  0
    4.6497   -2.5908    0.7619 C   0  0  0  0  0  0  0  0  0  0  0  0
    3.2886   -1.9773    0.9038 C   0  0  0  0  0  0  0  0  0  0  0  0
    2.4007   -2.4140   -0.2062 C   0  0  2  0  0  0  0  0  0  0  0  0
    2.8527   -2.0982   -1.5705 C   0  0  0  0  0  0  0  0  0  0  0  0
    0.9457   -2.1010    0.0160 C   0  0  0  0  0  0  0  0  0  0  0  0
    0.1842   -2.6034   -1.1896 C   0  0  0  0  0  0  0  0  0  0  0  0
    0.3648   -4.0892   -1.3610 C   0  0  0  0  0  0  0  0  0  0  0  0
   -1.2552   -2.1798   -1.1798 C   0  0  0  0  0  0  0  0  0  0  0  0
   -2.0029   -2.6882    0.0323 C   0  0  0  0  0  0  0  0  0  0  0  0
   -3.4253   -2.2031   -0.0682 C   0  0  0  0  0  0  0  0  0  0  0  0
   -4.1238   -2.6695    1.0499 O   0  0  0  0  0  0  0  0  0  0  0  0
   -3.5105   -0.6927   -0.0358 C   0  0  0  0  0  0  0  0  0  0  0  0
   -4.9412   -0.2143   -0.1371 C   0  0  0  0  0  0  0  0  0  0  0  0
   -4.9421    1.2733   -0.0987 C   0  0  0  0  0  0  0  0  0  0  0  0
   -6.2040    1.8367   -0.1844 O   0  0  0  0  0  0  0  0  0  0  0  0
   -4.0124    1.8662   -0.9342 O   0  0  0  0  0  0  0  0  0  0  0  0
   -4.3356    3.1740   -1.2596 C   0  0  0  0  0  3  0  0  0  0  0  0
   -4.9689    3.8878   -0.0853 C   0  0  0  0  0  0  0  0  0  0  0  0
   -6.2588    3.1376    0.2459 C   0  0  1  0  0  0  0  0  0  0  0  0
   -7.4448    3.8016   -0.4471 C   0  0  0  0  0  2  0  0  0  0  0  0
  1  2  1  0
  2  3  1  0
  2  4  1  0
  4  5  1  0
  5  6  1  0
  6  7  1  0
  7  8  1  1
  7  9  1  0
  9 10  1  0
 10 11  1  0
 11 12  1  0
 12 13  1  6
 12 14  1  0
 14 15  1  0
 15 16  1  0
 15 17  1  0
 17 18  1  0
 18 19  1  0
 19 20  1  0
 19 21  1  0
 21 22  1  0
 22 23  1  0
 23 24  1  0
 23 25  1  0
 25 26  1  0
 26 27  1  0
 27 28  1  0
 28 29  1  6
 28 24  1  0
M  RAD  3   9   2  26   2  29   3
M  END
$$$$
