
     RDKit          3D

 10 11  0  0  0  0  0  0  0  0999 V2000
   -3.0636   -0.7994    0.2839 O   0  0  0  0  0  0  0  0  0  0  0  0
   -2.1129    0.0696   -0.1964 C   0  0  0  0  0  0  0  0  0  0  0  0
   -1.1410   -0.6074   -1.1052 C   0  0  0  0  0  0  0  0  0  0  0  0
    0.1090   -0.3447   -0.6908 C   0  0  0  0  0  0  0  0  0  0  0  0
    1.4562   -0.7057   -1.1429 C   0  0  0  0  0  0  0  0  0  0  0  0
    2.5050   -0.2503   -0.4345 C   0  0  0  0  0  0  0  0  0  0  0  0
    2.3735    0.5760    0.7438 C   0  0  0  0  0  0  0  0  0  0  0  0
    1.1664    0.9185    1.1648 C   0  0  0  0  0  0  0  0  0  0  0  0
    0.0112    0.4970    0.4878 C   0  0  0  0  0  0  0  0  0  0  0  0
   -1.3037    0.6464    0.8896 N   0  0  0  0  0  0  0  0  0  0  0  0
  1  2  1  0
  2  3  1  0
  3  4  2  0
  4  5  1  0
  5  6  2  0
  6  7  1  0
  7  8  2  0
  8  9  1  0
  9 10  1  0
 10  2  1  0
  9  4  1  0
M  END
$$$$
