
     RDKit          3D

 36 37  0  0  0  0  0  0  0  0999 V2000
   -2.6364    0.2195   -0.5222 C   0  0  0  0  0  0  0  0  0  0  0  0
   -2.3710   -1.2139   -0.2279 C   0  0  0  0  0  0  0  0  0  0  0  0
   -2.0766   -1.9162   -1.5587 C   0  0  0  0  0  0  0  0  0  0  0  0
   -1.2299   -1.4185    0.7028 C   0  0  0  0  0  0  0  0  0  0  0  0
   -0.8258   -2.8925    0.6712 C   0  0  0  0  0  0  0  0  0  0  0  0
    0.5502   -2.9396    0.0427 C   0  0  0  0  0  0  0  0  0  0  0  0
    1.0570   -4.3310   -0.1638 C   0  0  1  0  0  0  0  0  0  0  0  0
    1.6056   -4.4027   -1.5944 C   0  0  0  0  0  0  0  0  0  0  0  0
    2.1914   -4.5700    0.8289 C   0  0  0  0  0  3  0  0  0  0  0  0
    2.8462   -3.2144    1.0572 C   0  0  0  0  0  0  0  0  0  0  0  0
    3.6284   -2.8997   -0.2049 C   0  0  0  0  0  0  0  0  0  0  0  0
    3.8298   -1.4197   -0.3910 C   0  0  0  0  0  3  0  0  0  0  0  0
    5.2725   -1.0491   -0.1740 C   0  0  0  0  0  3  0  0  0  0  0  0
    5.9791   -0.7026   -1.4580 C   0  0  0  0  0  2  0  0  0  0  0  0
    5.3109    0.1953    0.7063 C   0  0  0  0  0  0  0  0  0  0  0  0
    5.0449    1.3727   -0.2252 C   0  0  0  0  0  0  0  0  0  0  0  0
    4.0684    0.9468   -1.3068 C   0  0  0  0  0  0  0  0  0  0  0  0
    4.5186    2.5666    0.5573 C   0  0  0  0  0  0  0  0  0  0  0  0
    3.5992    3.3551   -0.3394 C   0  0  0  0  0  0  0  0  0  0  0  0
    2.3066    3.4028    0.1818 O   0  0  0  0  0  0  0  0  0  0  0  0
    1.3987    3.5503   -0.8711 C   0  0  0  0  0  0  0  0  0  0  0  0
    0.2903    4.4475   -0.3659 C   0  0  1  0  0  0  0  0  0  0  0  0
   -0.7372    4.6959   -1.4576 C   0  0  0  0  0  2  0  0  0  0  0  0
   -0.3509    3.7996    0.7007 O   0  0  0  0  0  0  0  0  0  0  0  0
   -1.3048    2.9467    0.1231 C   0  0  0  0  0  0  0  0  0  0  0  0
   -1.5917    1.7739    1.0596 C   0  0  0  0  0  3  0  0  0  0  0  0
   -2.8707    1.0951    0.6284 C   0  0  2  0  0  0  0  0  0  0  0  0
   -3.6024    0.5644    1.7831 C   0  0  0  0  0  0  0  0  0  0  0  0
   -2.6516   -0.0546    2.8169 C   0  0  0  0  0  0  0  0  0  0  0  0
   -4.2354    1.7594    2.5164 C   0  0  0  0  0  2  0  0  0  0  0  0
   -4.6815   -0.4066    1.5233 C   0  0  0  0  0  3  0  0  0  0  0  0
   -4.7129   -1.0287    0.1874 C   0  0  0  0  0  3  0  0  0  0  0  0
   -5.4364   -2.3323    0.1243 C   0  0  0  0  0  0  0  0  0  0  0  0
   -5.0291   -0.0954   -0.9448 C   0  0  0  0  0  0  0  0  0  0  0  0
   -3.7329    0.3863   -1.5333 C   0  0  2  0  0  0  0  0  0  0  0  0
   -3.4204   -0.1900   -2.8723 C   0  0  0  0  0  0  0  0  0  0  0  0
  1  2  1  0
  2  3  1  0
  2  4  1  0
  4  5  1  0
  5  6  1  0
  6  7  1  0
  7  8  1  6
  7  9  1  0
  9 10  1  0
 10 11  1  0
 11 12  1  0
 12 13  1  0
 13 14  1  6
 13 15  1  0
 15 16  1  0
 16 17  1  0
 16 18  1  0
 18 19  1  0
 19 20  1  0
 20 21  1  0
 21 22  1  0
 22 23  1  6
 22 24  1  0
 24 25  1  0
 25 26  1  0
 27 26  1  1
 27 28  1  0
 28 29  1  0
 28 30  1  0
 28 31  1  0
 31 32  1  0
 32 33  1  1
 32 34  1  0
 34 35  1  0
 35 36  1  6
 27  1  1  0
 35  1  1  0
M  RAD  8   9   2  12   2  13   2  14   3  23   3  26   2  30   3  31   2
M  RAD  1  32   2
M  END
$$$$
