
     RDKit          3D

 12 13  0  0  0  0  0  0  0  0999 V2000
   -2.9029    1.4873   -0.0030 O   0  0  0  0  0  0  0  0  0  0  0  0
   -1.9344    0.8196    0.0094 C   0  0  0  0  0  0  0  0  0  0  0  0
   -1.5389   -0.1062   -1.1651 C   0  0  0  0  0  0  0  0  0  0  0  0
   -0.4468   -0.8104   -0.9487 C   0  0  0  0  0  0  0  0  0  0  0  0
    0.9656   -0.3929   -1.2643 C   0  0  0  0  0  0  0  0  0  0  0  0
    1.3046    0.2015    0.2526 C   0  0  0  0  0  0  0  0  0  0  0  0
    2.4692    0.6802    0.3954 C   0  0  0  0  0  0  0  0  0  0  0  0
    3.4752    0.7186   -0.6978 C   0  0  0  0  0  0  0  0  0  0  0  0
   -0.4164   -2.0583   -0.0733 C   0  0  0  0  0  0  0  0  0  0  0  0
   -0.0443   -1.3282    1.3718 C   0  0  0  0  0  0  0  0  0  0  0  0
    0.0770   -0.0368    0.9372 C   0  0  0  0  0  0  0  0  0  0  0  0
   -1.0078    0.8256    1.1859 O   0  0  0  0  0  0  0  0  0  0  0  0
  1  2  2  0
  2  3  1  0
  3  4  2  0
  4  5  1  0
  5  6  1  0
  6  7  2  3
  7  8  1  0
  4  9  1  0
  9 10  1  0
 10 11  2  0
 11 12  1  0
 12  2  1  0
 11  6  1  0
M  END
$$$$
