
     RDKit          3D

 26 25  0  0  0  0  0  0  0  0999 V2000
   -8.2533    0.5766   -1.2742 O   0  0  0  0  0  0  0  0  0  0  0  0
   -7.6954   -0.3984   -1.8122 N   0  0  0  0  0  3  0  0  0  0  0  0
   -6.3893   -0.2696   -2.2010 O   0  0  0  0  0  0  0  0  0  0  0  0
   -5.7791    0.9649   -2.2562 N   0  0  0  0  0  2  0  0  0  0  0  0
   -4.4545    0.8919   -1.6826 C   0  0  0  0  0  0  0  0  0  0  0  0
   -3.4700   -0.2664   -2.6769 S   0  0  0  0  0  0  0  0  0  0  0  0
   -1.8554   -0.1079   -2.7225 N   0  0  0  0  0  0  0  0  0  0  0  0
   -1.1957    0.8947   -2.0189 N   0  0  0  0  0  3  0  0  0  0  0  0
   -0.6577    0.6837   -0.8881 N   0  0  0  0  0  4  0  0  0  0  0  0
   -0.0048    1.7933   -0.2550 C   0  0  0  0  0  2  0  0  0  0  0  0
   -0.5182    2.0291    1.4647 S   0  0  0  0  0  0  0  0  0  0  0  0
   -0.3733    0.2341    2.5668 S   0  0  0  0  0  0  0  0  0  0  0  0
    1.0572    0.0582    3.2323 C   0  0  0  0  0  0  0  0  0  0  0  0
    2.4027    1.1905    3.1025 S   0  0  0  0  0  0  0  0  0  0  0  0
    3.8380    0.6739    1.6550 S   0  0  0  0  0  0  0  0  0  0  0  0
    4.8249   -0.5930    1.7365 N   0  0  0  0  0  3  0  0  0  0  0  0
    5.7033   -0.7588    0.6732 O   0  0  0  0  0  0  0  0  0  0  0  0
    7.0530   -0.3590    0.7874 C   0  0  0  0  0  0  0  0  0  0  0  0
    7.0686    1.4270    1.1330 S   0  0  0  0  0  0  0  0  0  0  0  0
    8.8130    1.9345    1.2788 C   0  0  0  0  0  2  0  0  0  0  0  0
    9.3523    1.8857   -0.0104 F   0  0  0  0  0  0  0  0  0  0  0  0
   -0.7216   -0.6353   -0.2945 C   0  0  0  0  0  0  0  0  0  0  0  0
   -1.4194   -1.5844   -1.0994 N   0  0  0  0  0  0  0  0  0  0  0  0
   -1.4079   -3.1202   -0.2460 S   0  0  0  0  0  0  0  0  0  0  0  0
   -2.8338   -3.2123    0.5315 C   0  0  0  0  0  0  0  0  0  0  0  0
   -3.0834   -4.3162    1.2762 F   0  0  0  0  0  0  0  0  0  0  0  0
  1  2  2  0
  2  3  1  0
  3  4  1  0
  4  5  1  0
  5  6  1  0
  6  7  2  3
  7  8  1  0
  8  9  2  3
  9 10  1  0
 10 11  1  0
 11 12  1  0
 12 13  2  3
 13 14  1  0
 14 15  1  0
 15 16  2  3
 16 17  1  0
 17 18  1  0
 18 19  1  0
 19 20  1  0
 20 21  1  0
  9 22  1  0
 22 23  1  0
 23 24  1  0
 24 25  2  3
 25 26  1  0
M  CHG  5   2   1   4   1   8   1   9   1  16   1
M  RAD  6   2   2   4   3   8   2  10   3  16   2  20   3
M  END
$$$$
