
     RDKit          3D

 17 18  0  0  0  0  0  0  0  0999 V2000
   -2.0607   -0.4080   -0.1204 C   0  0  0  0  0  0  0  0  0  0  0  0
   -1.7626    0.7376    0.5794 O   0  0  0  0  0  0  0  0  0  0  0  0
   -1.8431    1.8564   -0.2249 C   0  0  0  0  0  3  0  0  0  0  0  0
   -0.6232    2.2474   -0.7474 O   0  0  0  0  0  0  0  0  0  0  0  0
    0.4279    2.0889    0.1422 C   0  0  2  0  0  0  0  0  0  0  0  0
    0.7051    3.3365    0.9431 C   0  0  0  0  0  0  0  0  0  0  0  0
    1.7008    1.6815   -0.5822 C   0  0  0  0  0  3  0  0  0  0  0  0
    1.9491    0.1839   -0.4389 C   0  0  1  0  0  0  0  0  0  0  0  0
    2.9342    0.0548    0.6333 N   0  0  0  0  0  0  0  0  0  0  0  0
    3.8798   -0.9877    0.3260 C   0  0  0  0  0  2  0  0  0  0  0  0
    0.6672   -0.4243    0.0415 C   0  0  0  0  0  0  0  0  0  0  0  0
    0.3041   -1.7152   -0.6316 C   0  0  0  0  0  0  0  0  0  0  0  0
   -0.7464   -1.4977   -1.7028 C   0  0  0  0  0  0  0  0  0  0  0  0
   -1.6141   -0.4803   -1.3934 O   0  0  0  0  0  0  0  0  0  0  0  0
   -0.2338   -2.5502    0.3606 O   0  0  0  0  0  0  0  0  0  0  0  0
   -1.5283   -2.5858    0.1960 O   0  0  0  0  0  0  0  0  0  0  0  0
   -2.1559   -1.5377    0.6157 O   0  0  0  0  0  0  0  0  0  0  0  0
  1  2  1  0
  2  3  1  0
  3  4  1  0
  4  5  1  0
  5  6  1  6
  5  7  1  0
  7  8  1  0
  8  9  1  1
  9 10  1  0
  8 11  1  0
 11 12  1  0
 12 13  1  0
 13 14  1  0
 12 15  1  0
 15 16  1  0
 16 17  1  0
 14  1  1  0
 17  1  1  0
M  RAD  3   3   2   7   2  10   3
M  END
$$$$
