
     RDKit          3D

 14 14  0  0  0  0  0  0  0  0999 V2000
    3.8456    1.2227   -1.0191 O   0  0  0  0  0  0  0  0  0  0  0  0
    3.4626    0.3101   -0.1882 O   0  0  0  0  0  0  0  0  0  0  0  0
    2.4412   -0.4733   -0.4078 C   0  0  0  0  0  3  0  0  0  0  0  0
    1.0974    0.1227   -0.2436 O   0  0  0  0  0  0  0  0  0  0  0  0
    0.3404   -1.1681    0.0294 C   0  0  2  0  0  0  0  0  0  0  0  0
   -0.4378   -1.2431   -1.3497 C   0  0  0  0  0  0  0  0  0  0  0  0
   -1.1403   -2.6288   -1.3023 C   0  0  0  0  0  2  0  0  0  0  0  0
   -0.7434   -0.4697    0.9786 C   0  0  1  0  0  0  0  0  0  0  0  0
   -0.2186   -0.2786    2.2731 N   0  0  0  0  0  0  0  0  0  0  0  0
   -0.0694   -1.4275    3.1009 C   0  0  0  0  0  2  0  0  0  0  0  0
   -1.1777    0.8807    0.5419 C   0  0  0  0  0  3  0  0  0  0  0  0
   -1.9281    1.0055   -0.7383 C   0  0  2  0  0  0  0  0  0  0  0  0
   -2.2028    2.4692   -1.1058 C   0  0  0  0  0  3  0  0  0  0  0  0
   -3.2691    1.6784   -0.5692 O   0  0  0  0  0  0  0  0  0  0  0  0
  1  2  1  0
  2  3  1  0
  3  4  1  0
  4  5  1  0
  5  6  1  6
  6  7  1  0
  5  8  1  0
  8  9  1  0
  9 10  1  0
  8 11  1  6
 12 11  1  1
 12 13  1  0
 12 14  1  0
 14 13  1  0
M  RAD  5   3   2   7   3  10   3  11   2  13   2
M  END
$$$$
