
     RDKit          3D

 29 29  0  0  0  0  0  0  0  0999 V2000
    1.9282    0.8141    0.7359 C   0  0  0  0  0  0  0  0  0  0  0  0
    2.9418   -0.1218    0.4246 C   0  0  0  0  0  0  0  0  0  0  0  0
    2.7643   -0.6404   -1.0501 C   0  0  0  0  0  0  0  0  0  0  0  0
    2.8051   -1.5423    1.1955 C   0  0  0  0  0  0  0  0  0  0  0  0
    1.6735   -2.3045    0.6156 C   0  0  0  0  0  0  0  0  0  0  0  0
    1.9019   -3.8363    0.8763 C   0  0  0  0  0  0  0  0  0  0  0  0
    0.9043   -4.2029    1.9418 C   0  0  1  0  0  0  0  0  0  0  0  0
    1.6726   -4.5441    3.2503 C   0  0  0  0  0  0  0  0  0  0  0  0
   -0.0661   -3.1341    2.3277 C   0  0  0  0  0  3  0  0  0  0  0  0
   -1.3173   -3.2275    1.4327 C   0  0  0  0  0  0  0  0  0  0  0  0
   -0.9288   -2.7343    0.0202 C   0  0  0  0  0  0  0  0  0  0  0  0
   -2.0871   -1.8275   -0.4416 C   0  0  1  0  0  0  0  0  0  0  0  0
   -3.4408   -2.3960   -0.2448 C   0  0  0  0  0  0  0  0  0  0  0  0
   -2.0552   -0.5223    0.5279 C   0  0  0  0  0  0  0  0  0  0  0  0
   -1.2838    0.5816   -0.1902 C   0  0  0  0  0  0  0  0  0  0  0  0
   -2.1483    0.9193   -1.3954 C   0  0  0  0  0  0  0  0  0  0  0  0
   -3.6367    1.1308   -1.0746 C   0  0  0  0  0  3  0  0  0  0  0  0
   -3.7286    1.2641    0.5089 C   0  0  0  0  0  0  0  0  0  0  0  0
   -5.0652    1.7587    0.9781 C   0  0  0  0  0  0  0  0  0  0  0  0
   -1.7614    0.9769   -2.6664 C   0  0  0  0  0  0  0  0  0  0  0  0
   -2.6074    1.2947   -3.6019 O   0  0  0  0  0  0  0  0  0  0  0  0
   -0.2257    0.6560   -2.9855 C   0  0  0  0  0  0  0  0  0  0  0  0
    0.3822    1.4499   -2.1149 C   0  0  0  0  0  0  0  0  0  0  0  0
    1.0368    2.3137   -1.1536 C   0  0  0  0  0  0  0  0  0  0  0  0
    1.7622    3.3085   -0.0395 C   0  0  0  0  0  0  0  0  0  0  0  0
    1.7804    4.3947   -0.7681 O   0  0  0  0  0  0  0  0  0  0  0  0
    2.9291    5.2732   -0.0388 C   0  0  0  0  0  0  0  0  0  0  0  0
    2.0505    2.4777    1.1785 S   0  0  0  0  0  0  0  0  0  0  0  0
    3.8194    2.4198    1.7512 C   0  0  0  0  0  0  0  0  0  0  0  0
  1  2  1  0
  2  3  1  0
  2  4  1  0
  4  5  1  0
  5  6  1  0
  6  7  1  0
  7  8  1  1
  7  9  1  0
  9 10  1  0
 10 11  1  0
 11 12  1  0
 12 13  1  1
 12 14  1  0
 14 15  1  0
 15 16  1  0
 16 17  1  0
 17 18  1  0
 18 19  1  0
 16 20  2  3
 20 21  1  0
 20 22  1  0
 22 23  1  0
 23 24  3  0
 24 25  1  0
 25 26  1  0
 26 27  1  0
 25 28  2  0
 28 29  1  0
  1 28  2  0
M  RAD  2   9   2  17   2
M  END
$$$$
