
     RDKit          3D

 41 42  0  0  0  0  0  0  0  0999 V2000
   -9.3298   -1.1451   -0.4994 C   0  0  0  0  0  0  0  0  0  0  0  0
   -8.8813    0.2861   -0.2721 C   0  0  0  0  0  0  0  0  0  0  0  0
   -8.5663    0.8598   -1.6447 C   0  0  0  0  0  0  0  0  0  0  0  0
   -9.9828    1.0868    0.3626 C   0  0  0  0  0  0  0  0  0  0  0  0
   -7.6531    0.2532    0.5954 C   0  0  0  0  0  0  0  0  0  0  0  0
   -6.5549   -0.5196   -0.0723 C   0  0  0  0  0  0  0  0  0  0  0  0
   -5.3549   -0.5493    0.7838 C   0  0  0  0  0  0  0  0  0  0  0  0
   -5.2959   -1.3199    1.7118 O   0  0  0  0  0  0  0  0  0  0  0  0
   -4.2238    0.3569    0.5145 C   0  0  0  0  0  0  0  0  0  0  0  0
   -3.9305    1.2674    1.6875 C   0  0  0  0  0  0  0  0  0  0  0  0
   -4.5114    1.1413   -0.5724 O   0  0  0  0  0  0  0  0  0  0  0  0
   -2.9864   -0.5040    0.2973 C   0  0  2  0  0  0  0  0  0  0  0  0
   -2.8245   -1.2718    1.5416 N   0  0  0  0  0  0  0  0  0  0  0  0
   -1.7733    0.3853    0.1330 C   0  0  0  0  0  0  0  0  0  0  0  0
   -0.5413   -0.4611   -0.0840 C   0  0  0  0  0  0  0  0  0  0  0  0
   -0.7347   -1.2914   -1.3342 C   0  0  0  0  0  0  0  0  0  0  0  0
    0.5717   -1.8123   -1.8616 C   0  0  0  0  0  0  0  0  0  0  0  0
   -1.3781   -0.4775   -2.4440 C   0  0  0  0  0  0  0  0  0  0  0  0
   -1.5957   -2.4774   -0.9565 C   0  0  0  0  0  0  0  0  0  0  0  0
   -0.7898   -3.3561   -0.0237 C   0  0  0  0  0  0  0  0  0  0  0  0
    0.5502   -2.7876    0.3084 C   0  0  0  0  0  0  0  0  0  0  0  0
    0.6842   -2.3495    1.7458 C   0  0  0  0  0  0  0  0  0  0  0  0
    0.9456   -0.8872    1.9062 C   0  0  0  0  0  3  0  0  0  0  0  0
    1.7237   -0.2862    0.7564 C   0  0  0  0  0  0  0  0  0  0  0  0
    0.6984    0.4089   -0.1639 C   0  0  0  0  0  0  0  0  0  0  0  0
    0.3597    1.6994    0.5421 C   0  0  0  0  0  0  0  0  0  0  0  0
    1.4897    2.6397    0.5182 C   0  0  0  0  0  0  0  0  0  0  0  0
    2.6169    2.3268   -0.0949 C   0  0  0  0  0  0  0  0  0  0  0  0
    3.6861    3.3823   -0.0411 C   0  0  0  0  0  0  0  0  0  0  0  0
    4.9062    2.8181    0.6008 C   0  0  0  0  0  0  0  0  0  0  0  0
    5.4370    1.6723   -0.1923 C   0  0  0  0  0  0  0  0  0  0  0  0
    5.7848    2.0076   -1.4792 O   0  0  0  0  0  0  0  0  0  0  0  0
    6.2131    0.9270   -2.2144 C   0  0  0  0  0  0  0  0  0  0  0  0
    7.4975    0.3257   -1.7262 C   0  0  0  0  0  0  0  0  0  0  0  0
    8.0351    0.9585   -0.4812 C   0  0  0  0  0  0  0  0  0  0  0  0
    7.4318   -1.1722   -1.6749 C   0  0  0  0  0  0  0  0  0  0  0  0
    7.0377   -1.6801   -0.3209 C   0  0  0  0  0  3  0  0  0  0  0  0
    6.6264   -0.5999    0.6367 C   0  0  0  0  0  0  0  0  0  0  0  0
    5.1254   -0.4197    0.7168 C   0  0  0  0  0  0  0  0  0  0  0  0
    4.8145    0.0249    2.1322 C   0  0  0  0  0  0  0  0  0  0  0  0
    4.6728    0.5400   -0.1885 O   0  0  0  0  0  0  0  0  0  0  0  0
  1  2  1  0
  2  3  1  0
  2  4  1  0
  2  5  1  0
  5  6  1  0
  6  7  1  0
  7  8  2  0
  7  9  1  0
  9 10  1  0
  9 11  1  0
  9 12  1  0
 12 13  1  1
 12 14  1  0
 14 15  1  0
 15 16  1  0
 16 17  1  0
 16 18  1  0
 16 19  1  0
 19 20  1  0
 20 21  1  0
 21 22  1  0
 22 23  1  0
 23 24  1  0
 24 25  1  0
 25 26  1  0
 26 27  1  0
 27 28  2  3
 28 29  1  0
 29 30  1  0
 30 31  1  0
 31 32  1  0
 32 33  1  0
 33 34  1  0
 34 35  1  0
 34 36  1  0
 36 37  1  0
 37 38  1  0
 38 39  1  0
 39 40  1  0
 39 41  1  0
 25 15  1  0
 41 31  1  0
M  RAD  2  23   2  37   2
M  END
$$$$
