
     RDKit          3D

  5  4  0  0  0  0  0  0  0  0999 V2000
   -1.5322    0.9121   -0.1478 F   0  0  0  0  0  0  0  0  0  0  0  0
   -1.3640   -0.3858    0.3053 C   0  0  0  0  0  0  0  0  0  0  0  0
   -0.0556   -0.8612   -0.2417 C   0  0  0  0  0  0  0  0  0  0  0  0
    0.9432   -0.1416   -0.0069 N   0  0  0  0  0  4  0  0  0  0  0  0
    2.0086    0.4765    0.0911 N   0  0  0  0  0  2  0  0  0  0  0  0
  1  2  1  0
  2  3  1  0
  3  4  2  0
  4  5  2  0
M  CHG  2   4   1   5  -1
M  END
$$$$
