
     RDKit          3D

 35 35  0  0  0  0  0  0  0  0999 V2000
   -5.7746   -4.5952    0.0915 C   0  0  0  0  0  0  0  0  0  0  0  0
   -6.5851   -3.6373   -0.5074 O   0  0  0  0  0  0  0  0  0  0  0  0
   -5.8053   -2.5315   -0.7752 C   0  0  0  0  0  3  0  0  0  0  0  0
   -4.6368   -2.4874   -0.0130 O   0  0  0  0  0  0  0  0  0  0  0  0
   -4.3503   -1.1553    0.2235 C   0  0  2  0  0  0  0  0  0  0  0  0
   -3.1158   -0.9431    1.0350 C   0  0  0  0  0  0  0  0  0  0  0  0
   -5.5444   -0.4407    0.7936 C   0  0  0  0  0  3  0  0  0  0  0  0
   -5.6853    0.8883    0.1137 C   0  0  1  0  0  0  0  0  0  0  0  0
   -5.1725    1.9964    0.9740 C   0  0  0  0  0  3  0  0  0  0  0  0
   -5.3400    3.2781    0.2464 C   0  0  0  0  0  0  0  0  0  0  0  0
   -6.5390    3.7668    0.0211 C   0  0  0  0  0  0  0  0  0  0  0  0
   -7.7745    3.0622    0.4820 C   0  0  0  0  0  0  0  0  0  0  0  0
   -5.1813    0.9073   -1.2893 C   0  0  0  0  0  3  0  0  0  0  0  0
   -3.8980    0.3523   -1.4190 O   0  0  0  0  0  0  0  0  0  0  0  0
   -3.0224    0.9766   -0.5363 C   0  0  0  0  0  3  0  0  0  0  0  0
   -2.2060   -0.0059    0.2676 C   0  0  2  0  0  0  0  0  0  0  0  0
   -1.4456   -0.7951   -0.5951 O   0  0  0  0  0  0  0  0  0  0  0  0
   -0.6327    0.0431   -1.2807 N   0  0  0  0  0  2  0  0  0  0  0  0
    0.5610    0.0971   -0.6026 O   0  0  0  0  0  0  0  0  0  0  0  0
    0.9889    1.4195   -0.6135 C   0  0  0  0  0  3  0  0  0  0  0  0
    2.4650    1.5723   -0.7837 C   0  0  2  0  0  0  0  0  0  0  0  0
    2.8529    1.0098   -1.9752 O   0  0  0  0  0  0  0  0  0  0  0  0
    3.1653    1.0311    0.4200 C   0  0  0  0  0  0  0  0  0  0  0  0
    2.9956   -0.3162    0.6232 O   0  0  0  0  0  0  0  0  0  0  0  0
    3.6758   -0.7132    1.7494 C   0  0  2  0  0  0  0  0  0  0  0  0
    3.2039   -0.0289    2.9506 N   0  0  0  0  0  1  0  0  0  0  0  0
    5.0183   -0.4594    1.6155 O   0  0  0  0  0  0  0  0  0  0  0  0
    5.2713    0.8860    1.4284 C   0  0  0  0  0  0  0  0  0  0  0  0
    6.6329    1.0748    1.3012 O   0  0  0  0  0  0  0  0  0  0  0  0
    7.1297    0.3610    0.2097 C   0  0  2  0  0  0  0  0  0  0  0  0
    6.4576    0.8472   -0.9812 N   0  0  0  0  0  1  0  0  0  0  0  0
    6.8576   -1.0082    0.4265 O   0  0  0  0  0  0  0  0  0  0  0  0
    7.3318   -1.7681   -0.6325 C   0  0  0  0  0  3  0  0  0  0  0  0
    8.5492   -1.1863   -1.0261 O   0  0  0  0  0  0  0  0  0  0  0  0
    9.5529   -1.4979   -0.1074 C   0  0  0  0  0  2  0  0  0  0  0  0
  1  2  1  0
  2  3  1  0
  3  4  1  0
  5  4  1  1
  5  6  1  0
  5  7  1  0
  7  8  1  0
  8  9  1  1
  9 10  1  0
 10 11  2  3
 11 12  1  0
  8 13  1  0
 13 14  1  0
 14 15  1  0
 15 16  1  0
 16 17  1  6
 17 18  1  0
 18 19  1  0
 19 20  1  0
 20 21  1  0
 21 22  1  6
 21 23  1  0
 23 24  1  0
 24 25  1  0
 25 26  1  1
 25 27  1  0
 27 28  1  0
 28 29  1  0
 29 30  1  0
 30 31  1  6
 30 32  1  0
 32 33  1  0
 33 34  1  0
 34 35  1  0
 16  6  1  0
M  RAD  8   3   2   7   2   9   2  13   2  15   2  18   3  20   2  26   2
M  CHG  3  18   1  26   1  31   1
M  RAD  3  31   2  33   2  35   3
M  END
$$$$
