
     RDKit          3D

 79 79  0  0  0  0  0  0  0  0999 V2000
  -10.8256   -2.8880   -4.4436 C   0  0  0  0  0  0  0  0  0  0  0  0
  -11.2234   -2.9585   -2.9858 C   0  0  0  0  0  0  0  0  0  0  0  0
  -12.0998   -4.1766   -2.7283 C   0  0  0  0  0  0  0  0  0  0  0  0
   -9.9909   -3.0155   -2.0857 C   0  0  0  0  0  0  0  0  0  0  0  0
  -10.4664   -3.0834   -0.6691 C   0  0  0  0  0  0  0  0  0  0  0  0
   -9.3679   -3.1462    0.3416 C   0  0  0  0  0  0  0  0  0  0  0  0
   -8.4386   -1.9694    0.3209 C   0  0  1  0  0  0  0  0  0  0  0  0
   -7.7559   -1.8388   -1.0357 C   0  0  0  0  0  0  0  0  0  0  0  0
   -9.1726   -0.6643    0.5615 C   0  0  1  0  0  0  0  0  0  0  0  0
   -9.8575   -0.6991    1.9128 C   0  0  0  0  0  0  0  0  0  0  0  0
  -10.8060    0.4499    2.0662 C   0  0  0  0  0  0  0  0  0  0  0  0
  -12.2367   -0.0298    2.2740 C   0  0  0  0  0  0  0  0  0  0  0  0
  -12.4285   -0.5196    3.6982 C   0  0  0  0  0  0  0  0  0  0  0  0
  -12.5181   -1.1371    1.2680 C   0  0  0  0  0  0  0  0  0  0  0  0
  -13.2119    1.0708    2.0675 C   0  0  0  0  0  0  0  0  0  0  0  0
  -13.1649    1.8002    0.9496 C   0  0  0  0  0  0  0  0  0  0  0  0
  -14.1210    2.9130    0.6989 C   0  0  0  0  0  0  0  0  0  0  0  0
  -13.6131    3.7082   -0.5042 C   0  0  0  0  0  0  0  0  0  0  0  0
  -12.2970    4.3613   -0.1388 C   0  0  0  0  0  0  0  0  0  0  0  0
  -12.2831    4.5643    1.3581 C   0  0  0  0  0  1  0  0  0  0  0  0
  -12.2403    5.7080   -0.7997 C   0  0  0  0  0  0  0  0  0  0  0  0
  -11.1853    3.4624   -0.6085 C   0  0  0  0  0  0  0  0  0  0  0  0
   -9.8317    3.9088   -0.1220 C   0  0  0  0  0  0  0  0  0  0  0  0
   -9.7952    4.2370    1.2137 O   0  0  0  0  0  0  0  0  0  0  0  0
   -8.6104    3.9695    1.8550 C   0  0  0  0  0  0  0  0  0  0  0  0
   -7.8932    2.7920    1.2837 C   0  0  0  0  0  0  0  0  0  0  0  0
   -8.8197    1.8655    0.5509 C   0  0  0  0  0  0  0  0  0  0  0  0
   -8.2681    0.4965    0.4303 C   0  0  0  0  0  0  0  0  0  0  0  0
   -6.9811    0.2942    0.2073 C   0  0  0  0  0  0  0  0  0  0  0  0
   -6.0800    1.4706    0.0771 C   0  0  0  0  0  3  0  0  0  0  0  0
   -4.9586    1.3228    1.0506 C   0  0  0  0  0  0  0  0  0  0  0  0
   -5.6772    1.6706   -1.3391 C   0  0  0  0  0  3  0  0  0  0  0  0
   -6.1803    3.2979   -2.0673 Si  0  0  0  0  0  1  0  0  0  0  0  0
   -4.3036    1.2482   -1.7053 C   0  0  0  0  0  3  0  0  0  0  0  0
   -4.1171   -0.2056   -1.9264 C   0  0  0  0  0  0  0  0  0  0  0  0
   -4.4058   -1.0974   -0.7732 C   0  0  0  0  0  0  0  0  0  0  0  0
   -2.7314   -0.4776   -2.4523 C   0  0  0  0  0  0  0  0  0  0  0  0
   -2.4484    0.2071   -3.7537 C   0  0  0  0  0  0  0  0  0  0  0  0
   -2.5476    1.6908   -3.6692 C   0  0  0  0  0  0  0  0  0  0  0  0
   -1.3842    2.4927   -2.4886 Si  0  0  0  0  0  3  0  0  0  0  0  0
   -2.2268    3.9331   -1.6683 C   0  0  0  0  0  0  0  0  0  0  0  0
   -0.6969    1.3644   -1.2011 C   0  0  0  0  0  2  0  0  0  0  0  0
   -0.0026    0.1674   -1.7946 C   0  0  0  0  0  0  0  0  0  0  0  0
    1.0149   -0.4335   -0.8658 C   0  0  0  0  0  0  0  0  0  0  0  0
    2.0974    0.5699   -0.5125 C   0  0  0  0  0  1  0  0  0  0  0  0
    0.2733   -0.8804    0.3867 C   0  0  0  0  0  0  0  0  0  0  0  0
   -0.7699   -1.9079   -0.0775 C   0  0  0  0  0  0  0  0  0  0  0  0
    1.2776   -1.6377    1.2452 C   0  0  2  0  0  0  0  0  0  0  0  0
    2.4332   -0.7711    1.6192 C   0  0  0  0  0  0  0  0  0  0  0  0
    1.7258   -2.8988    0.5001 C   0  0  0  0  0  0  0  0  0  0  0  0
    2.7076   -3.6154    1.3930 C   0  0  0  0  0  3  0  0  0  0  0  0
    3.8814   -2.7043    1.6509 C   0  0  0  0  0  0  0  0  0  0  0  0
    4.5361   -2.3906    0.3237 C   0  0  0  0  0  0  0  0  0  0  0  0
    5.0043   -3.6196   -0.3516 C   0  0  0  0  0  3  0  0  0  0  0  0
    3.6574   -4.6012   -1.0611 S   0  0  0  0  0  0  0  0  0  0  0  0
    6.0504   -4.4297    0.2924 C   0  0  0  0  0  0  0  0  0  0  0  0
    7.3833   -3.8415    0.4560 C   0  0  0  0  0  0  0  0  0  0  0  0
    7.5338   -2.6175    1.2793 C   0  0  0  0  0  0  0  0  0  0  0  0
    7.0243   -2.8365    3.0102 S   0  0  0  0  0  0  0  0  0  0  0  0
    8.9786   -2.1201    1.2906 C   0  0  0  0  0  0  0  0  0  0  0  0
    9.8359   -3.2107    1.8665 C   0  0  0  0  0  0  0  0  0  0  0  0
   11.2708   -2.7732    1.8961 C   0  0  0  0  0  0  0  0  0  0  0  0
   11.5433   -1.5573    2.7022 C   0  0  0  0  0  0  0  0  0  0  0  0
   11.1161   -1.6596    4.4323 S   0  0  0  0  0  0  0  0  0  0  0  0
   11.1158   -0.0006    1.9406 S   0  0  0  0  0  0  0  0  0  0  0  0
   12.1419    0.3538    0.4802 C   0  0  0  0  0  3  0  0  0  0  0  0
   13.1105   -0.7486    0.2000 C   0  0  0  0  0  0  0  0  0  0  0  0
   14.4378   -0.6121    0.8776 C   0  0  0  0  0  0  0  0  0  0  0  0
   15.4393   -2.0683    0.3878 S   0  0  0  0  0  0  0  0  0  0  0  0
   15.3403    0.8750    0.4235 S   0  0  0  0  0  0  0  0  0  0  0  0
   15.8317    0.8452   -1.3270 C   0  0  0  0  0  0  0  0  0  0  0  0
   16.6021    2.1200   -1.6159 C   0  0  0  0  0  0  0  0  0  0  0  0
   17.8391    2.2122   -0.7467 C   0  0  1  0  0  0  0  0  0  0  0  0
   17.5393    2.2139    0.7173 C   0  0  0  0  0  0  0  0  0  0  0  0
   18.8580    1.1484   -1.1141 C   0  0  0  0  0  3  0  0  0  0  0  0
   19.3063    1.2875   -2.5505 C   0  0  2  0  0  0  0  0  0  0  0  0
   20.6781    0.0946   -2.7879 S   0  0  0  0  0  0  0  0  0  0  0  0
   19.9284    2.6686   -2.6820 C   0  0  0  0  0  0  0  0  0  0  0  0
   20.5201    2.9870   -4.3651 S   0  0  0  0  0  0  0  0  0  0  0  0
  1  2  1  0
  2  3  1  0
  2  4  1  0
  4  5  1  0
  5  6  1  0
  6  7  1  0
  7  8  1  6
  7  9  1  0
  9 10  1  1
 10 11  1  0
 11 12  1  0
 12 13  1  0
 12 14  1  0
 12 15  1  0
 15 16  2  3
 16 17  1  0
 17 18  1  0
 18 19  1  0
 19 20  1  0
 19 21  1  0
 19 22  1  0
 22 23  1  0
 23 24  1  0
 24 25  1  0
 25 26  1  0
 26 27  1  0
 27 28  1  0
 28 29  2  3
 29 30  1  0
 30 31  1  0
 30 32  1  0
 32 33  1  0
 32 34  1  0
 34 35  1  0
 35 36  1  0
 35 37  1  0
 37 38  1  0
 38 39  1  0
 39 40  1  0
 40 41  1  0
 40 42  1  0
 42 43  1  0
 43 44  1  0
 44 45  1  0
 44 46  1  0
 46 47  1  0
 46 48  1  0
 48 49  1  6
 48 50  1  0
 50 51  1  0
 51 52  1  0
 52 53  1  0
 53 54  1  0
 54 55  1  0
 54 56  1  0
 56 57  1  0
 57 58  1  0
 58 59  1  0
 58 60  1  0
 60 61  1  0
 61 62  1  0
 62 63  1  0
 63 64  1  0
 63 65  1  0
 65 66  1  0
 66 67  1  0
 67 68  1  0
 68 69  1  0
 68 70  1  0
 70 71  1  0
 71 72  1  0
 72 73  1  0
 73 74  1  1
 73 75  1  0
 75 76  1  0
 76 77  1  1
 76 78  1  0
 78 79  1  0
 28  9  1  0
M  RAD  8  20   2  30   2  32   2  33   2  34   2  40   2  42   3  45   2
M  RAD  4  51   2  54   2  66   2  75   2
M  END
$$$$
