
     RDKit          3D

 35 37  0  0  0  0  0  0  0  0999 V2000
    4.2325   -2.2573    0.7236 N   0  0  0  0  0  0  0  0  0  0  0  0
    3.2087   -2.9363    1.0934 C   0  0  0  0  0  0  0  0  0  0  0  0
    3.2073   -3.8009    2.2185 N   0  0  0  0  0  0  0  0  0  0  0  0
    1.9561   -2.8173    0.3094 C   0  0  0  0  0  0  0  0  0  0  0  0
    1.1805   -4.0936    0.4446 C   0  0  0  0  0  0  0  0  0  0  0  0
   -0.1109   -4.0793   -0.3222 C   0  0  0  0  0  0  0  0  0  0  0  0
   -1.1017   -3.1520    0.2965 C   0  0  0  0  0  0  0  0  0  0  0  0
   -2.4150   -3.2902    0.1078 C   0  0  0  0  0  0  0  0  0  0  0  0
   -3.3139   -2.3225    0.7624 C   0  0  0  0  0  0  0  0  0  0  0  0
   -2.6114   -1.4625    1.7861 C   0  0  0  0  0  0  0  0  0  0  0  0
   -2.5442   -0.0516    1.2805 C   0  0  0  0  0  0  0  0  0  0  0  0
   -2.5467    0.9242    2.3269 N   0  0  0  0  0  0  0  0  0  0  0  0
   -2.9099    2.1047    2.0752 C   0  0  0  0  0  0  0  0  0  0  0  0
   -2.9384    3.1873    3.1277 C   0  0  0  0  0  0  0  0  0  0  0  0
   -3.3371    2.4994    0.7025 C   0  0  0  0  0  0  0  0  0  0  0  0
   -2.2782    2.2103   -0.3195 C   0  0  0  0  0  0  0  0  0  0  0  0
   -2.8658    1.5139   -1.4798 C   0  0  0  0  0  0  0  0  0  0  0  0
   -4.0855    1.0643   -1.4746 N   0  0  0  0  0  0  0  0  0  0  0  0
   -4.6227    0.3980   -2.6072 C   0  0  0  0  0  0  0  0  0  0  0  0
   -4.9632   -0.9847   -2.3528 N   0  0  0  0  0  0  0  0  0  0  0  0
   -4.1516   -1.7401   -1.4813 C   0  0  0  0  0  0  0  0  0  0  0  0
   -1.6761    3.3802   -0.7711 O   0  0  0  0  0  0  0  0  0  0  0  0
   -1.1397    4.1081    0.2892 C   0  0  0  0  0  3  0  0  0  0  0  0
    0.2844    3.7374    0.5533 C   0  0  0  0  0  0  0  0  0  0  0  0
    1.0028    3.3051   -0.7058 C   0  0  0  0  0  0  0  0  0  0  0  0
    1.6861    1.9799   -0.5530 C   0  0  0  0  0  0  0  0  0  0  0  0
    2.5044    1.9668    0.7253 C   0  0  0  0  0  0  0  0  0  0  0  0
    3.7778    1.2218    0.5719 C   0  0  2  0  0  0  0  0  0  0  0  0
    4.9189    2.2469    0.6337 C   0  0  0  0  0  0  0  0  0  0  0  0
    6.0934    1.5840   -0.0486 C   0  0  0  0  0  0  0  0  0  0  0  0
    6.3340    0.3884    0.8513 C   0  0  0  0  0  0  0  0  0  0  0  0
    4.0283    0.1073   -0.3963 S   0  0  0  0  0  0  0  0  0  0  0  0
    4.2630   -1.3719   -0.4140 C   0  0  0  0  0  0  0  0  0  0  0  0
    5.0774   -2.0123   -1.5459 C   0  0  0  0  0  0  0  0  0  0  0  0
   -4.1435   -1.5555   -0.1632 C   0  0  0  0  0  0  0  0  0  0  0  0
  1  2  2  3
  2  3  1  0
  2  4  1  0
  4  5  1  0
  5  6  1  0
  6  7  1  0
  7  8  2  3
  8  9  1  0
  9 10  1  0
 10 11  1  0
 11 12  1  0
 12 13  2  3
 13 14  1  0
 13 15  1  0
 15 16  1  0
 16 17  1  0
 17 18  2  3
 18 19  1  0
 19 20  1  0
 20 21  1  0
 16 22  1  0
 22 23  1  0
 23 24  1  0
 24 25  1  0
 25 26  1  0
 26 27  1  0
 28 27  1  6
 28 29  1  0
 29 30  1  0
 30 31  1  0
 31 32  1  0
 32 33  1  0
 33 34  1  0
  9 35  1  0
 33  1  1  0
 21 35  2  3
 32 28  1  0
M  RAD  1  23   2
M  END
$$$$
