
     RDKit          3D

 40 39  0  0  0  0  0  0  0  0999 V2000
  -11.4036    0.6419    3.1680 C   0  0  0  0  0  0  0  0  0  0  0  0
  -10.8206    1.2466    1.9124 C   0  0  0  0  0  0  0  0  0  0  0  0
  -11.0981    2.7442    1.8416 C   0  0  0  0  0  0  0  0  0  0  0  0
   -9.3219    0.9748    1.7978 C   0  0  0  0  0  0  0  0  0  0  0  0
   -9.1690   -0.5365    1.7702 C   0  0  0  0  0  0  0  0  0  0  0  0
   -7.7151   -0.9340    1.6564 C   0  0  0  0  0  0  0  0  0  0  0  0
   -7.6208   -2.4396    1.6330 C   0  0  1  0  0  0  0  0  0  0  0  0
   -8.1956   -3.0463    2.8898 C   0  0  0  0  0  0  0  0  0  0  0  0
   -8.3812   -2.9714    0.4437 C   0  0  0  0  0  0  0  0  0  0  0  0
   -7.8160   -2.4309   -0.8511 C   0  0  0  0  0  0  0  0  0  0  0  0
   -6.3678   -2.8616   -0.9475 C   0  0  0  0  0  0  0  0  0  0  0  0
   -5.7284   -2.3531   -2.2286 C   0  0  0  0  0  3  0  0  0  0  0  0
   -5.7904   -0.8480   -2.2400 C   0  0  0  0  0  3  0  0  0  0  0  0
   -5.5368   -0.2637   -0.8653 C   0  0  0  0  0  2  0  0  0  0  0  0
   -4.0681    0.1389   -0.8252 C   0  0  0  0  0  3  0  0  0  0  0  0
   -3.2526   -1.1253   -0.9200 C   0  0  0  0  0  3  0  0  0  0  0  0
   -1.8020   -0.7981   -1.9427 S   0  0  0  0  0  0  0  0  0  0  0  0
   -1.8547    0.9317   -2.4720 C   0  0  0  0  0  0  0  0  0  0  0  0
   -1.6960    1.8874   -1.3319 C   0  0  0  0  0  2  0  0  0  0  0  0
   -0.8060    1.1103   -3.5501 C   0  0  0  0  0  0  0  0  0  0  0  0
    0.5288    0.7570   -2.9254 C   0  0  0  0  0  0  0  0  0  0  0  0
    0.7328    1.7250   -1.7635 C   0  0  0  0  0  0  0  0  0  0  0  0
    0.7233    3.1280   -2.3779 C   0  0  0  0  0  0  0  0  0  0  0  0
    2.0845    1.4152   -1.1582 C   0  0  0  0  0  0  0  0  0  0  0  0
    3.1033    1.6250   -2.2652 C   0  0  0  0  0  0  0  0  0  0  0  0
    4.4761    1.3095   -1.6272 C   0  0  0  0  0  0  0  0  0  0  0  0
    4.3313   -0.0431   -1.2131 O   0  0  0  0  0  0  0  0  0  0  0  0
    4.5695    2.2168   -0.4325 C   0  0  0  0  0  0  0  0  0  0  0  0
    6.0813    2.1007    0.5083 S   0  0  0  0  0  0  0  0  0  0  0  0
    7.5109    2.6753   -0.3850 C   0  0  0  0  0  0  0  0  0  0  0  0
    7.9143    1.7954   -1.4727 C   0  0  0  0  0  0  0  0  0  0  0  0
    8.4188    0.4489   -1.2224 C   0  0  0  0  0  0  0  0  0  0  0  0
    7.4208   -0.7018   -0.3528 S   0  0  0  0  0  0  0  0  0  0  0  0
    7.1617   -0.4035    1.3916 C   0  0  0  0  0  0  0  0  0  0  0  0
    8.6916   -0.5681    2.3544 S   0  0  0  0  0  0  0  0  0  0  0  0
    9.8775    0.7501    1.9107 C   0  0  0  0  0  0  0  0  0  0  0  0
   11.1466    0.5692    2.7308 C   0  0  0  0  0  0  0  0  0  0  0  0
   11.8967   -1.0477    2.3881 S   0  0  0  0  0  0  0  0  0  0  0  0
   10.7575   -2.3004    2.9980 C   0  0  0  0  0  0  0  0  0  0  0  0
   11.0176   -2.9722    3.9755 O   0  0  0  0  0  0  0  0  0  0  0  0
  1  2  1  0
  2  3  1  0
  2  4  1  0
  4  5  1  0
  5  6  1  0
  6  7  1  0
  7  8  1  1
  7  9  1  0
  9 10  1  0
 10 11  1  0
 11 12  1  0
 12 13  1  0
 13 14  1  0
 14 15  1  0
 15 16  1  0
 16 17  1  0
 17 18  1  0
 18 19  1  0
 18 20  1  0
 20 21  1  0
 21 22  1  0
 22 23  1  0
 22 24  1  0
 24 25  1  0
 25 26  1  0
 26 27  1  0
 26 28  1  0
 28 29  1  0
 29 30  1  0
 30 31  1  0
 31 32  1  0
 32 33  1  0
 33 34  1  0
 34 35  1  0
 35 36  1  0
 36 37  1  0
 37 38  1  0
 38 39  1  0
 39 40  2  0
M  RAD  6  12   2  13   2  14   3  15   2  16   2  19   3
M  END
$$$$
