
     RDKit          3D

 63 67  0  0  0  0  0  0  0  0999 V2000
    4.1250    8.7248   -0.2736 O   0  0  0  0  0  0  0  0  0  0  0  0
    4.9435    7.8053   -0.4274 C   0  0  0  0  0  0  0  0  0  0  0  0
    6.2964    7.9990   -0.0500 O   0  0  0  0  0  0  0  0  0  0  0  0
    4.4940    6.5139   -0.9984 C   0  0  0  0  0  0  0  0  0  0  0  0
    5.6786    5.5354   -0.8554 C   0  0  0  0  0  0  0  0  0  0  0  0
    5.1541    4.2277   -1.4691 C   0  0  0  0  0  0  0  0  0  0  0  0
    3.9325    3.8689   -0.6767 C   0  0  0  0  0  0  0  0  0  0  0  0
    3.2541    2.5910   -1.0713 C   0  0  0  0  0  0  0  0  0  0  0  0
    4.0924    1.3659   -0.9216 C   0  0  0  0  0  0  0  0  0  0  0  0
    3.1800    0.1368   -1.3059 C   0  0  0  0  0  0  0  0  0  0  0  0
    4.1408   -1.0718   -1.0479 C   0  0  0  0  0  0  0  0  0  0  0  0
    3.3823   -2.1878   -0.7107 C   0  0  0  0  0  0  0  0  0  0  0  0
    4.2970   -3.3074   -0.4402 C   0  0  0  0  0  0  0  0  0  0  0  0
    4.9140   -4.0411   -0.2524 C   0  0  0  0  0  0  0  0  0  0  0  0
    5.8562   -5.1285    0.0442 C   0  0  0  0  0  0  0  0  0  0  0  0
    5.5917   -6.4629   -0.4322 C   0  0  0  0  0  0  0  0  0  0  0  0
    6.9260   -4.8060    0.7876 C   0  0  0  0  0  0  0  0  0  0  0  0
    7.8376   -5.8768    1.0518 N   0  0  0  0  0  0  0  0  0  0  0  0
    9.2386   -5.6162    0.9736 N   0  0  0  0  0  0  0  0  0  0  0  0
    9.5426   -4.3792    1.1581 C   0  0  0  0  0  0  0  0  0  0  0  0
   10.8245   -3.7312    1.1537 C   0  0  0  0  0  0  0  0  0  0  0  0
    7.1852   -3.4695    1.3367 C   0  0  0  0  0  0  0  0  0  0  0  0
    6.0356   -2.5587    1.5174 C   0  0  0  0  0  0  0  0  0  0  0  0
    6.1392   -1.4697    2.5148 C   0  0  0  0  0  0  0  0  0  0  0  0
    4.9632   -0.6553    2.5308 O   0  0  0  0  0  0  0  0  0  0  0  0
    4.3161   -0.4893    1.3000 N   0  0  0  0  0  0  0  0  0  0  0  0
    3.0352   -0.2004    1.2290 C   0  0  0  0  0  0  0  0  0  0  0  0
    2.3061   -0.0010    0.0078 C   0  0  0  0  0  0  0  0  0  0  0  0
    1.0274    0.0277   -0.1856 C   0  0  0  0  0  0  0  0  0  0  0  0
   -0.0035   -0.0686    0.8324 C   0  0  0  0  0  0  0  0  0  0  0  0
   -0.9106   -1.1130    0.7125 O   0  0  0  0  0  0  0  0  0  0  0  0
   -1.4808   -0.9024   -0.5953 C   0  0  0  0  0  0  0  0  0  0  0  0
   -1.9754    0.4166   -0.5519 O   0  0  0  0  0  0  0  0  0  0  0  0
   -2.8615    0.7177   -1.5332 C   0  0  0  0  0  0  0  0  0  0  0  0
   -3.2563   -0.3716   -2.4189 C   0  0  0  0  0  0  0  0  0  0  0  0
   -2.6750   -1.0359   -3.3494 C   0  0  0  0  0  0  0  0  0  0  0  0
   -3.5355   -2.0532   -3.9160 O   0  0  0  0  0  0  0  0  0  0  0  0
   -4.1797   -2.8745   -2.8593 C   0  0  0  0  0  0  0  0  0  0  0  0
   -4.9181   -1.9818   -2.1178 O   0  0  0  0  0  0  0  0  0  0  0  0
   -5.0383   -1.6554   -0.7887 C   0  0  0  0  0  0  0  0  0  0  0  0
   -3.8552   -1.5671   -0.1400 C   0  0  0  0  0  0  0  0  0  0  0  0
   -2.5900   -1.7960   -0.7721 O   0  0  0  0  0  0  0  0  0  0  0  0
   -3.6136   -1.2446    1.2439 C   0  0  0  0  0  0  0  0  0  0  0  0
   -3.2757   -0.0955    1.7389 C   0  0  0  0  0  0  0  0  0  0  0  0
   -3.0271    1.2318    1.1430 C   0  0  0  0  0  0  0  0  0  0  0  0
   -4.2434    1.6374    0.2471 C   0  0  0  0  0  0  0  0  0  0  0  0
   -4.1191    1.3757   -0.9755 C   0  0  0  0  0  0  0  0  0  0  0  0
   -4.9572    1.5596   -2.1231 O   0  0  0  0  0  0  0  0  0  0  0  0
   -6.0449    2.3768   -2.2423 O   0  0  0  0  0  0  0  0  0  0  0  0
   -7.1854    2.0161   -1.3901 C   0  0  0  0  0  0  0  0  0  0  0  0
   -7.0339    0.9047   -0.8411 C   0  0  0  0  0  0  0  0  0  0  0  0
   -7.0155   -0.2188   -0.2093 C   0  0  0  0  0  0  0  0  0  0  0  0
   -6.3050   -1.3984   -0.0338 C   0  0  0  0  0  0  0  0  0  0  0  0
   -6.9478   -2.1819    0.8601 O   0  0  0  0  0  0  0  0  0  0  0  0
   -6.8514   -2.5685    2.1957 C   0  0  0  0  0  0  0  0  0  0  0  0
   -6.4600   -1.3428    3.0096 C   0  0  0  0  0  0  0  0  0  0  0  0
   -6.4100   -0.1267    2.3902 C   0  0  0  0  0  0  0  0  0  0  0  0
   -6.0644    1.1333    2.9666 C   0  0  0  0  0  0  0  0  0  0  0  0
   -4.9963    1.8293    2.4436 O   0  0  0  0  0  0  0  0  0  0  0  0
   -5.1066    2.2898    1.2357 N   0  0  0  0  0  3  0  0  0  0  0  0
   -5.1890    3.5059    1.0592 O   0  0  0  0  0  0  0  0  0  0  0  0
   -5.7773    4.6259    1.0075 C   0  0  0  0  0  0  0  0  0  0  0  0
   -4.8064    5.6328    0.6347 O   0  0  0  0  0  0  0  0  0  0  0  0
  1  2  2  0
  2  3  1  0
  2  4  1  0
  4  5  1  0
  5  6  1  0
  6  7  1  0
  7  8  1  0
  8  9  1  0
  9 10  1  0
 10 11  1  0
 11 12  2  3
 12 13  1  0
 13 14  3  0
 14 15  1  0
 15 16  1  0
 15 17  2  3
 17 18  1  0
 18 19  1  0
 19 20  2  3
 20 21  1  0
 17 22  1  0
 22 23  1  0
 23 24  1  0
 24 25  1  0
 25 26  1  0
 26 27  2  3
 27 28  1  0
 28 29  2  3
 29 30  1  0
 30 31  1  0
 31 32  1  0
 32 33  1  0
 33 34  1  0
 34 35  1  0
 35 36  2  3
 36 37  1  0
 37 38  1  0
 38 39  1  0
 39 40  1  0
 40 41  2  3
 41 42  1  0
 41 43  1  0
 43 44  2  3
 44 45  1  0
 45 46  1  0
 46 47  2  3
 47 48  1  0
 48 49  1  0
 49 50  1  0
 50 51  2  3
 51 52  1  0
 52 53  2  3
 53 54  1  0
 54 55  1  0
 55 56  1  0
 56 57  2  3
 57 58  1  0
 58 59  1  0
 59 60  1  0
 60 61  1  0
 61 62  1  0
 62 63  1  0
 28 10  1  0
 42 32  1  0
 47 34  1  0
 53 40  1  0
 60 46  1  0
M  CHG  1  60   1
M  RAD  1  60   2
M  END
$$$$
