
     RDKit          3D

 30 31  0  0  0  0  0  0  0  0999 V2000
    6.2825    3.0554    0.4063 C   0  0  0  0  0  0  0  0  0  0  0  0
    6.6699    2.3070   -0.8739 C   0  0  0  0  0  0  0  0  0  0  0  0
    5.9617    0.9722   -0.8503 C   0  0  2  0  0  0  0  0  0  0  0  0
    6.3287    0.2244   -2.0962 C   0  0  0  0  0  0  0  0  0  0  0  0
    4.4832    1.2019   -0.7980 C   0  0  0  0  0  0  0  0  0  0  0  0
    4.0047    2.3445   -0.7799 O   0  0  0  0  0  0  0  0  0  0  0  0
    3.6116    0.1226   -0.7685 O   0  0  0  0  0  0  0  0  0  0  0  0
    2.2128    0.2658   -0.7190 C   0  0  0  0  0  3  0  0  0  0  0  0
    1.6932    0.3225    0.6972 C   0  0  0  0  0  0  0  0  0  0  0  0
    1.3512   -1.0267    1.2502 C   0  0  2  0  0  0  0  0  0  0  0  0
    2.5334   -1.9627    1.2837 C   0  0  0  0  0  0  0  0  0  0  0  0
    0.2236   -1.6768    0.4897 C   0  0  0  0  0  0  0  0  0  0  0  0
    0.4730   -2.8992    0.0128 C   0  0  0  0  0  0  0  0  0  0  0  0
   -0.4887   -3.7243   -0.7632 C   0  0  0  0  0  0  0  0  0  0  0  0
   -1.7913   -3.7490   -0.5313 C   0  0  0  0  0  0  0  0  0  0  0  0
   -2.5213   -3.0044    0.4900 C   0  0  2  0  0  0  0  0  0  0  0  0
   -3.9954   -3.3704    0.4995 C   0  0  0  0  0  0  0  0  0  0  0  0
   -2.2847   -1.5855    0.6662 C   0  0  2  0  0  0  0  0  0  0  0  0
   -3.4429   -0.7696    0.1908 C   0  0  0  0  0  0  0  0  0  0  0  0
   -3.2588   -0.1674   -1.1655 C   0  0  0  0  0  0  0  0  0  0  0  0
   -4.2787    0.9420   -1.3325 C   0  0  0  0  0  0  0  0  0  0  0  0
   -4.6661    1.4397    0.0229 C   0  0  0  0  0  0  0  0  0  0  0  0
   -6.1476    1.5034    0.2372 C   0  0  0  0  0  0  0  0  0  0  0  0
   -4.0852    2.6660    0.3226 O   0  0  0  0  0  0  0  0  0  0  0  0
   -2.6944    2.5068    0.3901 C   0  0  0  0  0  0  0  0  0  0  0  0
   -2.2519    2.1222    1.7986 C   0  0  0  0  0  0  0  0  0  0  0  0
   -1.0107    1.2505    1.7211 C   0  0  0  0  0  0  0  0  0  0  0  0
   -0.9792    0.4833    0.4435 C   0  0  0  0  0  0  0  0  0  0  0  0
   -0.9080    1.1633   -0.5876 O   0  0  0  0  0  0  0  0  0  0  0  0
   -1.0246   -0.9574    0.3239 C   0  0  0  0  0  0  0  0  0  0  0  0
  1  2  1  0
  2  3  1  0
  3  4  1  6
  3  5  1  0
  5  6  2  0
  5  7  1  0
  7  8  1  0
  8  9  1  0
  9 10  1  0
 10 11  1  6
 10 12  1  0
 12 13  2  0
 13 14  1  0
 14 15  2  0
 15 16  1  0
 16 17  1  6
 16 18  1  0
 18 19  1  6
 19 20  1  0
 20 21  1  0
 21 22  1  0
 22 23  1  0
 22 24  1  0
 24 25  1  0
 25 26  1  0
 26 27  1  0
 27 28  1  0
 28 29  2  0
 18 30  1  0
 30 12  1  0
 30 28  1  0
M  RAD  1   8   2
M  END
$$$$
