
     RDKit          3D

  8  7  0  0  0  0  0  0  0  0999 V2000
    2.8425   -0.3164   -0.5570 N   0  0  0  0  0  0  0  0  0  0  0  0
    1.4481   -0.4710   -0.5525 C   0  0  0  0  0  0  0  0  0  0  0  0
    0.6167    0.2478    0.1797 C   0  0  0  0  0  0  0  0  0  0  0  0
   -1.0979   -0.1084    0.0358 S   0  0  0  0  0  0  0  0  0  0  0  0
   -1.7809    0.1354    1.3554 O   0  0  0  0  0  0  0  0  0  0  0  0
   -1.2922   -1.5742   -0.3250 O   0  0  0  0  0  0  0  0  0  0  0  0
   -1.7529    0.8336   -1.1793 O   0  0  0  0  0  0  0  0  0  0  0  0
    1.0166    1.2532    1.0428 O   0  0  0  0  0  1  0  0  0  0  0  0
  1  2  1  0
  2  3  2  3
  3  4  1  0
  4  5  2  0
  4  6  2  0
  4  7  1  0
  3  8  1  0
M  CHG  1   8  -1
M  END
$$$$
