
     RDKit          3D

  9  9  0  0  0  0  0  0  0  0999 V2000
   -1.8772    0.9803   -0.3406 C   0  0  0  0  0  0  0  0  0  0  0  0
   -2.1130   -0.1960    0.3370 O   0  0  0  0  0  0  0  0  0  0  0  0
   -1.4073   -1.2137   -0.3191 C   0  0  0  0  0  3  0  0  0  0  0  0
   -0.0999   -1.2869    0.1047 O   0  0  0  0  0  0  0  0  0  0  0  0
    0.7784   -0.5363   -0.6521 C   0  0  2  0  0  0  0  0  0  0  0  0
    2.0534   -0.3813    0.1753 C   0  0  0  0  0  0  0  0  0  0  0  0
    2.9976    0.4548   -0.6986 C   0  0  0  0  0  2  0  0  0  0  0  0
    0.2336    0.8009   -1.0616 C   0  0  0  0  0  3  0  0  0  0  0  0
   -0.5656    1.3782   -0.0825 O   0  0  0  0  0  0  0  0  0  0  0  0
  1  2  1  0
  2  3  1  0
  3  4  1  0
  4  5  1  0
  5  6  1  1
  6  7  1  0
  5  8  1  0
  8  9  1  0
  9  1  1  0
M  RAD  3   3   2   7   3   8   2
M  END
$$$$
