
     RDKit          3D

  4  3  0  0  0  0  0  0  0  0999 V2000
   -1.9187   -0.5705   -0.1908 C   0  0  0  0  0  0  0  0  0  0  0  0
   -0.6919    0.5583    0.5314 S   0  0  0  0  0  0  0  0  0  0  0  0
    0.6727    0.5785   -0.5230 O   0  0  0  0  0  0  0  0  0  0  0  0
    1.9379   -0.5663    0.1824 Br  0  0  0  0  0  0  0  0  0  0  0  0
  1  2  1  0
  2  3  1  0
  3  4  1  0
M  END
$$$$
