
     RDKit          3D

 25 28  0  0  0  0  0  0  0  0999 V2000
   -1.0919   -1.6830   -1.8651 C   0  0  0  0  0  0  0  0  0  0  0  0
   -1.6092   -2.2207   -0.6283 O   0  0  0  0  0  0  0  0  0  0  0  0
   -2.3140   -1.3374    0.2197 C   0  0  0  0  0  0  0  0  0  0  0  0
   -3.0548   -1.7174    1.3028 C   0  0  0  0  0  0  0  0  0  0  0  0
   -3.7276   -0.8077    2.1025 C   0  0  0  0  0  0  0  0  0  0  0  0
   -3.6301    0.5517    1.7679 C   0  0  0  0  0  0  0  0  0  0  0  0
   -2.8991    0.9546    0.6953 C   0  0  0  0  0  0  0  0  0  0  0  0
   -2.2666    0.0088   -0.0436 C   0  0  0  0  0  0  0  0  0  0  0  0
   -2.7370    2.3568    0.2760 C   0  0  0  0  0  0  0  0  0  0  0  0
   -1.3629    2.4430   -0.3685 C   0  0  0  0  0  0  0  0  0  0  0  0
   -1.4261    2.3803   -1.7948 N   0  0  0  0  0  0  0  0  0  0  0  0
   -1.1825    1.0725   -2.3156 C   0  0  0  0  0  0  0  0  0  0  0  0
    0.0097    0.4470   -1.7743 C   0  0  0  0  0  0  0  0  0  0  0  0
    0.1470   -0.8489   -1.5273 C   0  0  0  0  0  0  0  0  0  0  0  0
    1.2797   -1.5013   -1.0301 C   0  0  0  0  0  0  0  0  0  0  0  0
    2.3749   -1.3218   -0.4173 C   0  0  0  0  0  0  0  0  0  0  0  0
    3.2923   -2.4683   -0.1178 C   0  0  0  0  0  0  0  0  0  0  0  0
    4.4532   -2.3583    0.4457 C   0  0  0  0  0  0  0  0  0  0  0  0
    4.9642   -1.0629    0.8514 C   0  0  0  0  0  0  0  0  0  0  0  0
    4.1954   -0.0279    0.6323 C   0  0  0  0  0  0  0  0  0  0  0  0
    2.8646   -0.0037    0.0300 C   0  0  0  0  0  0  0  0  0  0  0  0
    1.9361    0.4769    1.1803 C   0  0  0  0  0  0  0  0  0  0  0  0
    1.0851    1.9182    0.5062 S   0  0  0  0  0  0  0  0  0  0  0  0
    1.1297    3.2930    1.6697 C   0  0  0  0  0  0  0  0  0  0  0  0
   -0.4300    1.4565    0.2028 C   0  0  0  0  0  0  0  0  0  0  0  0
  1  2  1  0
  2  3  1  0
  3  4  2  0
  4  5  1  0
  5  6  2  0
  6  7  1  0
  7  8  2  0
  7  9  1  0
  9 10  1  0
 10 11  1  0
 11 12  1  0
 12 13  1  0
 13 14  2  3
 14 15  1  0
 15 16  2  3
 16 17  1  0
 17 18  2  0
 18 19  1  0
 19 20  2  0
 20 21  1  0
 21 22  1  0
 22 23  1  0
 23 24  1  0
 23 25  2  3
 14  1  1  0
  8  3  1  0
 25 10  1  0
 21 16  1  0
M  END
$$$$
