
     RDKit          3D

  7  6  0  0  0  0  0  0  0  0999 V2000
   -3.6098   -0.7306   -1.1951 C   0  0  0  0  0  0  0  0  0  0  0  0
   -2.5261    0.1895   -0.0488 S   0  0  0  0  0  0  0  0  0  0  0  0
   -0.8625   -0.1082   -0.4984 C   0  0  0  0  0  0  0  0  0  0  0  0
    0.1917    0.0078    0.2662 C   0  0  0  0  0  0  0  0  0  0  0  0
    1.4871   -0.3081   -0.3738 C   0  0  0  0  0  0  0  0  0  0  0  0
    2.6279   -0.2354    0.2716 C   0  0  0  0  0  0  0  0  0  0  0  0
    2.6917    0.1374    1.5783 F   0  0  0  0  0  0  0  0  0  0  0  0
  1  2  1  0
  2  3  1  0
  3  4  2  3
  4  5  1  0
  5  6  2  3
  6  7  1  0
M  END
$$$$
