
     RDKit          3D

 17 16  0  0  0  0  0  0  0  0999 V2000
   -4.3905    1.2772   -0.6244 F   0  0  0  0  0  0  0  0  0  0  0  0
   -5.3490    0.6943    0.0741 N   0  0  0  0  0  4  0  0  0  0  0  0
   -6.5737    0.9705   -0.2682 C   0  0  0  0  0  0  0  0  0  0  0  0
   -5.1787   -0.1948    1.1507 C   0  0  0  0  0  0  0  0  0  0  0  0
   -4.4557   -1.4345    0.8153 C   0  0  0  0  0  0  0  0  0  0  0  0
   -3.0910   -1.3380    0.3362 C   0  0  0  0  0  0  0  0  0  0  0  0
   -2.3659   -0.2468    0.1786 C   0  0  0  0  0  0  0  0  0  0  0  0
   -0.6875   -0.3428   -0.4306 S   0  0  0  0  0  0  0  0  0  0  0  0
    0.3642   -1.1602    0.7538 N   0  0  0  0  0  0  0  0  0  0  0  0
    1.1905   -2.4649   -0.1160 S   0  0  0  0  0  0  0  0  0  0  0  0
    2.5098   -1.6684   -1.0621 C   0  0  0  0  0  0  0  0  0  0  0  0
    3.6968   -1.4761   -0.5687 C   0  0  0  0  0  0  0  0  0  0  0  0
    4.7910   -0.8770   -1.1956 N   0  0  0  0  0  0  0  0  0  0  0  0
    5.0087    0.5425   -1.2469 C   0  0  0  0  0  0  0  0  0  0  0  0
    5.0757    1.1586   -0.0637 C   0  0  0  0  0  0  0  0  0  0  0  0
    5.3405    2.9151    0.0726 S   0  0  0  0  0  0  0  0  0  0  0  0
    4.1148    3.6452    1.1370 N   0  0  0  0  0  0  0  0  0  0  0  0
  1  2  1  0
  2  3  2  0
  2  4  1  0
  4  5  1  0
  5  6  1  0
  6  7  2  3
  7  8  1  0
  8  9  1  0
  9 10  1  0
 10 11  1  0
 11 12  2  0
 12 13  1  0
 13 14  1  0
 14 15  2  3
 15 16  1  0
 16 17  1  0
M  CHG  1   2   1
M  END
$$$$
