
     RDKit          3D

 21 21  0  0  0  0  0  0  0  0999 V2000
   -3.0700    3.3929   -0.3466 C   0  0  0  0  0  0  0  0  0  0  0  0
   -3.4301    2.2185   -0.1157 C   0  0  0  0  0  0  0  0  0  0  0  0
   -3.6736    0.9018    0.1036 C   0  0  0  0  0  0  0  0  0  0  0  0
   -5.2453    0.3950    0.5963 S   0  0  0  0  0  0  0  0  0  0  0  0
   -2.6050   -0.0765    0.1970 C   0  0  0  0  0  0  0  0  0  0  0  0
   -3.0730   -1.3429    0.2079 O   0  0  0  0  0  0  0  0  0  0  0  0
   -1.2020    0.1113    0.2596 O   0  0  0  0  0  0  0  0  0  0  0  0
   -0.6609   -1.2696    0.2646 C   0  0  1  0  0  0  0  0  0  0  0  0
   -0.9028   -1.7448   -1.3437 S   0  0  0  0  0  0  0  0  0  0  0  0
   -0.4756    0.5097   -2.2187 C   0  0  0  0  0  0  0  0  0  0  0  0
    1.1345   -2.1164   -1.8425 S   0  0  0  0  0  0  0  0  0  0  0  0
    1.6302   -0.8292   -0.5212 C   0  0  2  0  0  0  0  0  0  0  0  0
    0.7347   -1.2850    0.6253 C   0  0  2  0  0  0  0  0  0  0  0  0
    1.0825   -2.6111    0.9315 O   0  0  0  0  0  0  0  0  0  0  0  0
    2.1501   -3.2873    1.1935 C   0  0  0  0  0  0  0  0  0  0  0  0
    3.2978   -2.9006    1.2839 O   0  0  0  0  0  0  0  0  0  0  0  0
    1.3074    0.3603   -1.0477 O   0  0  0  0  0  0  0  0  0  0  0  0
    2.1220    1.3032   -1.0820 O   0  0  0  0  0  0  0  0  0  0  0  0
    3.5125    1.7911   -0.4754 S   0  0  0  0  0  0  0  0  0  0  0  0
    3.5627    3.0380    0.5928 C   0  0  0  0  0  0  0  0  0  0  0  0
    3.8040    3.4415    1.7341 O   0  0  0  0  0  0  0  0  0  0  0  0
  1  2  1  0
  2  3  2  3
  3  4  1  0
  3  5  1  0
  5  6  2  0
  5  7  1  0
  8  7  1  6
  8  9  1  0
  9 10  1  0
  9 11  1  0
 11 12  1  0
 12 13  1  0
 13 14  1  6
 14 15  1  0
 15 16  2  0
 12 17  1  6
 17 18  1  0
 18 19  1  0
 19 20  2  0
 20 21  2  0
 13  8  1  0
M  END
$$$$
