
     RDKit          3D

 17 19  0  0  0  0  0  0  0  0999 V2000
   -3.5326   -0.1476   -1.3073 C   0  0  0  0  0  0  0  0  0  0  0  0
   -2.1757   -0.2270   -1.7021 O   0  0  0  0  0  0  0  0  0  0  0  0
   -1.1988   -0.3696   -0.6796 C   0  0  0  0  0  0  0  0  0  0  0  0
   -0.8999   -1.6683   -0.3472 C   0  0  0  0  0  0  0  0  0  0  0  0
   -0.7359   -3.0801   -0.1463 C   0  0  0  0  0  0  0  0  0  0  0  0
   -0.0033   -2.1875    0.5692 C   0  0  0  0  0  0  0  0  0  0  0  0
    0.8503   -1.5012    1.4096 C   0  0  0  0  0  0  0  0  0  0  0  0
    2.1803   -1.3924    0.9709 C   0  0  0  0  0  0  0  0  0  0  0  0
    2.3534   -0.6091   -0.1759 C   0  0  0  0  0  0  0  0  0  0  0  0
    3.3255   -1.0049   -0.9406 O   0  0  0  0  0  0  0  0  0  0  0  0
    1.6703    0.4050   -0.5079 O   0  0  0  0  0  0  0  0  0  0  0  0
    0.6887    1.0910   -0.0632 C   0  0  0  0  0  0  0  0  0  0  0  0
    0.9738    2.3342    0.5611 C   0  0  0  0  0  0  0  0  0  0  0  0
    0.0366    3.1625    1.0723 C   0  0  0  0  0  0  0  0  0  0  0  0
   -1.2661    2.7997    0.9933 C   0  0  0  0  0  0  0  0  0  0  0  0
   -1.6158    1.6364    0.4164 C   0  0  0  0  0  0  0  0  0  0  0  0
   -0.6508    0.7591   -0.1226 C   0  0  0  0  0  0  0  0  0  0  0  0
  1  2  1  0
  2  3  1  0
  3  4  2  0
  4  5  1  0
  5  6  2  0
  6  7  1  0
  7  8  2  0
  8  9  1  0
  9 10  2  0
  9 11  1  0
 11 12  1  0
 12 13  2  0
 13 14  1  0
 14 15  2  0
 15 16  1  0
 16 17  2  0
 17  3  1  0
  6  4  1  0
 17 12  1  0
M  END
$$$$
