
     RDKit          3D

 24 25  0  0  0  0  0  0  0  0999 V2000
   -1.8891   -2.5394    1.4685 C   0  0  0  0  0  0  0  0  0  0  0  0
   -1.4518   -1.1124    1.2158 C   0  0  0  0  0  0  0  0  0  0  0  0
   -0.5843   -0.7222    2.3124 N   0  0  0  0  0  0  0  0  0  0  0  0
    0.7789   -1.1511    2.0189 C   0  0  0  0  0  0  0  0  0  0  0  0
    0.7516   -2.5179    1.3275 C   0  0  0  0  0  0  0  0  0  0  0  0
    0.2254   -2.3117   -0.0936 C   0  0  0  0  0  0  0  0  0  0  0  0
   -0.6547   -1.0806   -0.0494 C   0  0  0  0  0  0  0  0  0  0  0  0
    0.2920    0.1172    0.0391 C   0  0  0  0  0  0  0  0  0  0  0  0
    1.0639    0.1369   -1.2009 N   0  0  0  0  0  0  0  0  0  0  0  0
    2.0260    1.1474   -1.3945 C   0  0  0  0  0  0  0  0  0  0  0  0
    3.2589    1.0645   -0.9129 C   0  0  0  0  0  0  0  0  0  0  0  0
    4.1658    2.1940   -1.1890 C   0  0  0  0  0  0  0  0  0  0  0  0
    5.4118    2.2010   -0.7504 C   0  0  0  0  0  0  0  0  0  0  0  0
    5.9504    1.0912    0.0285 C   0  0  0  0  0  0  0  0  0  0  0  0
    7.1837    1.0642    0.4806 C   0  0  0  0  0  0  0  0  0  0  0  0
   -1.5084   -0.9864   -1.2942 C   0  0  0  0  0  0  0  0  0  0  0  0
   -0.5276   -0.9661   -2.4756 C   0  0  0  0  0  0  0  0  0  0  0  0
   -2.3347   -2.2350   -1.4063 C   0  0  0  0  0  0  0  0  0  0  0  0
   -2.2971    0.2773   -1.3655 C   0  0  0  0  0  0  0  0  0  0  0  0
   -3.2276    0.4734   -0.2559 C   0  0  0  0  0  0  0  0  0  0  0  0
   -4.2967   -0.3784    0.0959 N   0  0  0  0  0  0  0  0  0  0  0  0
   -4.7959   -0.0372    1.3108 O   0  0  0  0  0  0  0  0  0  0  0  0
   -4.3138    1.2564    1.5144 C   0  0  0  0  0  0  0  0  0  0  0  0
   -3.2267    1.4448    0.5759 N   0  0  0  0  0  0  0  0  0  0  0  0
  1  2  1  0
  2  3  1  0
  3  4  1  0
  4  5  1  0
  5  6  1  0
  6  7  1  0
  7  8  1  0
  8  9  1  0
  9 10  1  0
 10 11  2  3
 11 12  1  0
 12 13  2  3
 13 14  1  0
 14 15  2  0
  7 16  1  0
 16 17  1  0
 16 18  1  0
 16 19  1  0
 19 20  1  0
 20 21  1  0
 21 22  1  0
 22 23  1  0
 23 24  1  0
  7  2  1  0
 20 24  2  0
M  END
$$$$
