
     RDKit          3D

  9  9  0  0  0  0  0  0  0  0999 V2000
    3.0131    0.5744   -0.8578 N   0  0  0  0  0  1  0  0  0  0  0  0
    2.5796   -0.9898   -0.1238 S   0  0  0  0  0  0  0  0  0  0  0  0
    1.3790   -0.7631    1.2090 C   0  0  0  0  0  0  0  0  0  0  0  0
    0.0690   -0.2820    0.7270 C   0  0  0  0  0  0  0  0  0  0  0  0
   -0.1874    1.0830    0.6343 C   0  0  0  0  0  0  0  0  0  0  0  0
   -1.3964    1.5689    0.1891 C   0  0  0  0  0  0  0  0  0  0  0  0
   -2.3600    0.6515   -0.1672 C   0  0  0  0  0  0  0  0  0  0  0  0
   -2.1634   -0.7058   -0.0969 C   0  0  0  0  0  0  0  0  0  0  0  0
   -0.9334   -1.1372    0.3566 C   0  0  0  0  0  0  0  0  0  0  0  0
  1  2  1  0
  2  3  1  0
  3  4  1  0
  4  5  2  0
  5  6  1  0
  6  7  2  0
  7  8  1  0
  8  9  2  0
  9  4  1  0
M  CHG  1   1   1
M  RAD  1   1   2
M  END
$$$$
