
     RDKit          3D

 50 51  0  0  0  0  0  0  0  0999 V2000
   -1.5645    0.6523   -1.5273 C   0  0  0  0  0  0  0  0  0  0  0  0
   -0.4861    0.1174   -2.2312 O   0  0  0  0  0  0  0  0  0  0  0  0
    0.6994    0.8298   -1.9341 C   0  0  0  0  0  3  0  0  0  0  0  0
    0.4557    1.5361   -0.7833 O   0  0  0  0  0  0  0  0  0  0  0  0
    1.5435    2.1377   -0.2167 C   0  0  2  0  0  0  0  0  0  0  0  0
    1.7213    1.5234    1.1788 C   0  0  0  0  0  0  0  0  0  0  0  0
    1.1385    3.5958    0.0421 C   0  0  1  0  0  0  0  0  0  0  0  0
    0.1266    3.6905    1.0558 N   0  0  0  0  0  0  0  0  0  0  0  0
   -1.0175    4.4751    0.6358 C   0  0  0  0  0  3  0  0  0  0  0  0
   -2.3210    3.7593    0.7676 C   0  0  0  0  0  0  0  0  0  0  0  0
   -2.6544    2.8441   -0.3587 C   0  0  0  0  0  0  0  0  0  0  0  0
   -3.0152    3.4629   -1.5273 O   0  0  0  0  0  0  0  0  0  0  0  0
   -3.5455    1.6904    0.0214 C   0  0  2  0  0  0  0  0  0  0  0  0
   -4.5297    2.2288    1.0599 C   0  0  0  0  0  0  0  0  0  0  0  0
   -2.8191    0.5547    0.6435 C   0  0  1  0  0  0  0  0  0  0  0  0
   -3.7367   -0.4306    0.9847 O   0  0  0  0  0  0  0  0  0  0  0  0
   -4.3596   -0.8473   -0.1777 C   0  0  2  0  0  0  0  0  0  0  0  0
   -5.0113    0.1997   -0.7758 O   0  0  0  0  0  0  0  0  0  0  0  0
   -5.3512   -2.3230   -0.0220 S   0  0  0  0  0  0  0  0  0  0  0  0
   -6.7609   -1.9843    1.0460 C   0  0  0  0  0  3  0  0  0  0  0  0
   -6.8145   -0.5800    1.5566 C   0  0  0  0  0  3  0  0  0  0  0  0
   -7.9283    0.2110    0.9007 C   0  0  0  0  0  3  0  0  0  0  0  0
   -9.1667   -0.6178    0.6703 C   0  0  0  0  0  3  0  0  0  0  0  0
   -8.8846   -1.9207   -0.0335 C   0  0  0  0  0  3  0  0  0  0  0  0
   -9.3003   -3.0244    0.7150 O   0  0  0  0  0  0  0  0  0  0  0  0
   -1.8188   -0.1046   -0.2714 C   0  0  2  0  0  0  0  0  0  0  0  0
   -0.6924   -0.5167    0.4039 O   0  0  0  0  0  0  0  0  0  0  0  0
   -0.2152   -1.7498   -0.0382 C   0  0  0  0  0  0  0  0  0  0  0  0
   -0.7074   -2.7258    0.8278 O   0  0  0  0  0  0  0  0  0  0  0  0
   -0.3764   -3.9850    0.3687 C   0  0  0  0  0  3  0  0  0  0  0  0
    0.5944   -3.8758   -0.6203 O   0  0  0  0  0  0  0  0  0  0  0  0
    1.0595   -5.1324   -0.9328 C   0  0  0  0  0  3  0  0  0  0  0  0
    2.3178   -5.3770   -0.1391 C   0  0  1  0  0  0  0  0  0  0  0  0
    2.0176   -6.2628    0.9003 O   0  0  0  0  0  0  0  0  0  0  0  0
    3.3955   -5.9500   -0.9995 C   0  0  0  0  0  0  0  0  0  0  0  0
    4.6444   -5.4504   -0.9197 C   0  0  0  0  0  0  0  0  0  0  0  0
    4.9673   -4.3358    0.0127 C   0  0  0  0  0  3  0  0  0  0  0  0
    6.1102   -3.6472   -0.4953 O   0  0  0  0  0  0  0  0  0  0  0  0
    6.5854   -2.5738    0.2599 C   0  0  0  0  0  0  0  0  0  0  0  0
    6.8622   -1.4532   -0.4019 C   0  0  0  0  0  0  0  0  0  0  0  0
    7.3678   -0.2983    0.3725 C   0  0  0  0  0  0  0  0  0  0  0  0
    7.8219    0.8184   -0.5362 C   0  0  0  0  0  3  0  0  0  0  0  0
    7.1258    2.0930   -0.1379 C   0  0  0  0  0  0  0  0  0  0  0  0
    5.8761    2.1483   -0.7271 O   0  0  0  0  0  0  0  0  0  0  0  0
    4.8975    2.3184    0.2558 C   0  0  0  0  0  3  0  0  0  0  0  0
    4.4748    3.6271    0.2664 O   0  0  0  0  0  0  0  0  0  0  0  0
    2.3874    4.3819    0.3531 C   0  0  2  0  0  0  0  0  0  0  0  0
    2.1167    5.8177   -0.0808 C   0  0  0  0  0  0  0  0  0  0  0  0
    3.3667    6.6063    0.2304 C   0  0  0  0  0  2  0  0  0  0  0  0
    3.4032    3.8468   -0.4540 O   0  0  0  0  0  0  0  0  0  0  0  0
  1  2  1  0
  2  3  1  0
  3  4  1  0
  4  5  1  0
  5  6  1  1
  5  7  1  0
  7  8  1  1
  8  9  1  0
  9 10  1  0
 10 11  1  0
 11 12  1  0
 11 13  1  0
 13 14  1  1
 13 15  1  0
 15 16  1  6
 16 17  1  0
 17 18  1  1
 17 19  1  0
 19 20  1  0
 20 21  1  0
 21 22  1  0
 22 23  1  0
 23 24  1  0
 24 25  1  0
 15 26  1  0
 26 27  1  1
 27 28  1  0
 28 29  1  0
 29 30  1  0
 30 31  1  0
 31 32  1  0
 32 33  1  0
 33 34  1  1
 33 35  1  0
 35 36  2  3
 36 37  1  0
 37 38  1  0
 38 39  1  0
 39 40  2  3
 40 41  1  0
 41 42  1  0
 42 43  1  0
 43 44  1  0
 44 45  1  0
 45 46  1  0
  7 47  1  0
 47 48  1  6
 48 49  1  0
 47 50  1  0
 26  1  1  0
 50 46  1  0
M  RAD  8   3   2   9   2  20   2  21   2  22   2  23   2  24   2  30   2
M  RAD  5  32   2  37   2  42   2  45   2  49   3
M  END
$$$$
