
     RDKit          3D

 29 29  0  0  0  0  0  0  0  0999 V2000
   -8.3420    1.5257    1.3723 O   0  0  0  0  0  0  0  0  0  0  0  0
   -8.8644    0.3879    1.4401 C   0  0  0  0  0  0  0  0  0  0  0  0
  -10.0521    0.2120    2.0964 O   0  0  0  0  0  0  0  0  0  0  0  0
   -8.2003   -0.7527    0.8148 C   0  0  0  0  0  0  0  0  0  0  0  0
   -7.0462   -0.6156    0.1699 C   0  0  0  0  0  0  0  0  0  0  0  0
   -6.4697   -1.8061   -0.4146 C   0  0  0  0  0  0  0  0  0  0  0  0
   -5.3518   -1.8669   -1.0796 C   0  0  0  0  0  0  0  0  0  0  0  0
   -4.4982   -0.7104   -1.3367 C   0  0  0  0  0  0  0  0  0  0  0  0
   -3.3835   -0.7804   -2.0017 C   0  0  0  0  0  0  0  0  0  0  0  0
   -2.5542    0.3107   -2.2583 N   0  0  0  0  0  0  0  0  0  0  0  0
   -1.2778    0.3357   -1.9916 C   0  0  0  0  0  0  0  0  0  0  0  0
   -0.4736    1.4073   -2.2458 O   0  0  0  0  0  0  0  0  0  0  0  0
    0.5287    1.8642   -1.4278 N   0  0  0  0  0  0  0  0  0  0  0  0
    0.5211    1.2695   -0.1315 C   0  0  0  0  0  0  0  0  0  0  0  0
   -0.6835   -0.8526   -1.3877 C   0  0  0  0  0  0  0  0  0  0  0  0
    0.5526   -1.2483   -1.6397 C   0  0  0  0  0  0  0  0  0  0  0  0
    1.4442   -0.5415   -2.5422 C   0  0  0  0  0  0  0  0  0  0  0  0
    2.4128    0.2030   -2.0686 C   0  0  0  0  0  0  0  0  0  0  0  0
    2.7202    0.4196   -0.6845 C   0  0  0  0  0  0  0  0  0  0  0  0
    1.9066    0.8962    0.2270 C   0  0  0  0  0  0  0  0  0  0  0  0
    2.3411    1.0732    1.6213 C   0  0  0  0  0  0  0  0  0  0  0  0
    3.7350    0.6676    1.8521 C   0  0  0  0  0  0  0  0  0  0  0  0
    4.4783    0.2013    0.8859 C   0  0  0  0  0  0  0  0  0  0  0  0
    5.8410   -0.1825    1.1668 C   0  0  0  0  0  0  0  0  0  0  0  0
    6.6763   -0.6595    0.2863 C   0  0  0  0  0  0  0  0  0  0  0  0
    8.0227   -1.0186    0.6517 C   0  0  0  0  0  0  0  0  0  0  0  0
    8.5759   -0.4891    1.7178 C   0  0  0  0  0  0  0  0  0  0  0  0
    9.1322   -0.1197    2.8367 C   0  0  0  0  0  0  0  0  0  0  0  0
    8.3087   -0.1337    4.0710 C   0  0  0  0  0  0  0  0  0  0  0  0
  1  2  2  0
  2  3  1  0
  2  4  1  0
  4  5  2  3
  5  6  1  0
  6  7  2  3
  7  8  1  0
  8  9  2  3
  9 10  1  0
 10 11  2  3
 11 12  1  0
 12 13  1  0
 13 14  1  0
 11 15  1  0
 15 16  2  3
 16 17  1  0
 17 18  2  3
 18 19  1  0
 19 20  2  3
 20 21  1  0
 21 22  1  0
 22 23  2  3
 23 24  1  0
 24 25  2  3
 25 26  1  0
 26 27  2  0
 27 28  2  0
 28 29  1  0
 20 14  1  0
M  END
$$$$
