
     RDKit          3D

 14 15  0  0  0  0  0  0  0  0999 V2000
   -3.3877   -0.9389    0.5393 O   0  0  0  0  0  0  0  0  0  0  0  0
   -2.1887   -1.0452    0.2180 C   0  0  0  0  0  0  0  0  0  0  0  0
   -1.6923   -2.2640   -0.1758 O   0  0  0  0  0  0  0  0  0  0  0  0
   -1.3298    0.1175    0.2628 C   0  0  0  0  0  0  0  0  0  0  0  0
   -1.7947    1.3598    0.6538 C   0  0  0  0  0  0  0  0  0  0  0  0
   -0.9491    2.4404    0.6836 C   0  0  0  0  0  0  0  0  0  0  0  0
    0.3852    2.3555    0.3335 C   0  0  0  0  0  0  0  0  0  0  0  0
    0.8594    1.1362   -0.0547 C   0  0  0  0  0  0  0  0  0  0  0  0
    0.0185    0.0452   -0.0880 C   0  0  0  0  0  0  0  0  0  0  0  0
    0.3274   -1.2892   -0.4607 N   0  0  0  0  0  0  0  0  0  0  0  0
    1.6051   -1.9078   -0.4394 C   0  0  0  0  0  0  0  0  0  0  0  0
    2.7848   -1.3023   -0.4896 C   0  0  0  0  0  0  0  0  0  0  0  0
    3.0658    0.1274   -0.5779 C   0  0  0  0  0  0  0  0  0  0  0  0
    2.2960    1.1654   -0.4050 C   0  0  0  0  0  0  0  0  0  0  0  0
  1  2  2  0
  2  3  1  0
  2  4  1  0
  4  5  2  0
  5  6  1  0
  6  7  2  0
  7  8  1  0
  8  9  2  0
  9 10  1  0
 10 11  1  0
 11 12  2  0
 12 13  1  0
 13 14  2  0
  9  4  1  0
 14  8  1  0
M  END
$$$$
