
     RDKit          3D

  9  8  0  0  0  0  0  0  0  0999 V2000
   -2.2325    2.0335   -0.1972 Cl  0  0  0  0  0  0  0  0  0  0  0  0
   -1.9428    0.5106    0.6135 N   0  0  0  0  0  2  0  0  0  0  0  0
   -2.2285   -0.5334   -0.2095 O   0  0  0  0  0  0  0  0  0  0  0  0
   -1.3152   -1.5676   -0.0736 C   0  0  0  0  0  0  0  0  0  0  0  0
   -0.0202   -1.1440   -0.3785 O   0  0  0  0  0  0  0  0  0  0  0  0
    0.3772   -0.1107    0.4684 C   0  0  0  0  0  3  0  0  0  0  0  0
    1.5366   -0.5257    1.3194 C   0  0  0  0  0  0  0  0  0  0  0  0
    2.8280   -0.1957    0.6113 C   0  0  0  0  0  0  0  0  0  0  0  0
    2.9974    1.5330    0.2727 Cl  0  0  0  0  0  0  0  0  0  0  0  0
  1  2  1  0
  2  3  1  0
  3  4  1  0
  4  5  1  0
  5  6  1  0
  6  7  1  0
  7  8  1  0
  8  9  1  0
M  CHG  1   2   1
M  RAD  2   2   3   6   2
M  END
$$$$
