
     RDKit          3D

 17 18  0  0  0  0  0  0  0  0999 V2000
   -2.0353   -2.8839    1.0119 C   0  0  0  0  0  0  0  0  0  0  0  0
   -1.9759   -1.5442    0.3239 C   0  0  1  0  0  0  0  0  0  0  0  0
   -2.0347   -0.4731    1.3584 C   0  0  0  0  0  0  0  0  0  0  0  0
   -1.8083    0.9119    0.8292 C   0  0  2  0  0  0  0  0  0  0  0  0
   -2.8555    1.3625    0.0303 O   0  0  0  0  0  0  0  0  0  0  0  0
   -0.5612    0.9289   -0.0382 C   0  0  2  0  0  0  0  0  0  0  0  0
   -0.1877    2.1849   -0.4319 O   0  0  0  0  0  0  0  0  0  0  0  0
   -0.8036   -0.0333   -1.1636 C   0  0  1  0  0  0  0  0  0  0  0  0
    0.0201    0.1264   -2.2414 O   0  0  0  0  0  0  0  0  0  0  0  0
   -0.7184   -1.4361   -0.5531 C   0  0  1  0  0  0  0  0  0  0  0  0
    0.3979   -1.3680    0.4033 N   0  0  0  0  0  0  0  0  0  0  0  0
    1.6512   -1.7016   -0.2078 C   0  0  0  0  0  3  0  0  0  0  0  0
    2.6202   -0.5535   -0.1917 C   0  0  0  0  0  0  0  0  0  0  0  0
    3.1757   -0.2184   -1.5453 C   0  0  0  0  0  0  0  0  0  0  0  0
    2.1620    0.5451    0.5094 O   0  0  0  0  0  0  0  0  0  0  0  0
    2.0030    1.6751   -0.2933 C   0  0  0  0  0  3  0  0  0  0  0  0
    0.9504    2.4772    0.1729 O   0  0  0  0  0  0  0  0  0  0  0  0
  2  1  1  1
  2  3  1  0
  3  4  1  0
  4  5  1  6
  4  6  1  0
  6  7  1  6
  6  8  1  0
  8  9  1  6
  8 10  1  0
 10 11  1  1
 11 12  1  0
 12 13  1  0
 13 14  1  0
 13 15  1  0
 15 16  1  0
 16 17  1  0
 10  2  1  0
 17  7  1  0
M  RAD  2  12   2  16   2
M  END
$$$$
