
     RDKit          3D

 17 16  0  0  0  0  0  0  0  0999 V2000
    5.4718   -0.5515    1.6295 C   0  0  0  0  0  0  0  0  0  0  0  0
    4.9645   -0.3511    0.2236 C   0  0  0  0  0  0  0  0  0  0  0  0
    6.0241   -0.4746   -0.8200 C   0  0  0  0  0  0  0  0  0  0  0  0
    4.1142    0.8842    0.0789 C   0  0  0  0  0  0  0  0  0  0  0  0
    2.9124    0.7416    1.0138 C   0  0  0  0  0  0  0  0  0  0  0  0
    2.1346   -0.4592    0.6405 C   0  0  0  0  0  0  0  0  0  0  0  0
    0.8701   -0.3214    0.2797 C   0  0  0  0  0  0  0  0  0  0  0  0
   -0.0042   -1.8014   -0.1551 S   0  0  0  0  0  0  0  0  0  0  0  0
   -1.5502   -1.6243    0.1623 C   0  0  0  0  0  0  0  0  0  0  0  0
   -2.1798   -0.4137    0.7337 C   0  0  0  0  0  0  0  0  0  0  0  0
   -3.9508   -0.7627    0.9838 S   0  0  0  0  0  0  0  0  0  0  0  0
   -4.7698   -0.9977   -0.6113 C   0  0  0  0  0  0  0  0  0  0  0  0
   -4.7497    0.3003   -1.3619 C   0  0  0  0  0  0  0  0  0  0  0  0
   -5.4845    1.3284   -0.5380 C   0  0  0  0  0  0  0  0  0  0  0  0
   -4.8634    1.5177    0.7524 N   0  0  0  0  0  0  0  0  0  0  0  0
    0.2063    0.9769    0.2340 C   0  0  0  0  0  0  0  0  0  0  0  0
    0.8542    2.0085    0.5480 O   0  0  0  0  0  0  0  0  0  0  0  0
  1  2  1  0
  2  3  1  0
  2  4  1  0
  4  5  1  0
  5  6  1  0
  6  7  2  3
  7  8  1  0
  8  9  2  3
  9 10  1  0
 10 11  1  0
 11 12  1  0
 12 13  1  0
 13 14  1  0
 14 15  1  0
  7 16  1  0
 16 17  2  0
M  END
$$$$
