
     RDKit          3D

 53 53  0  0  0  0  0  0  0  0999 V2000
   -6.7620   -3.4823    1.1697 C   0  0  0  0  0  0  0  0  0  0  0  0
   -5.5976   -4.2125    1.2487 O   0  0  0  0  0  0  0  0  0  0  0  0
   -4.4499   -3.3653    0.8543 C   0  0  0  0  0  3  0  0  0  0  0  0
   -4.6963   -3.2830   -0.5747 O   0  0  0  0  0  0  0  0  0  0  0  0
   -5.7671   -2.3436   -0.5917 C   0  0  2  0  0  0  0  0  0  0  0  0
   -6.5805   -2.7188   -1.9178 C   0  0  0  0  0  0  0  0  0  0  0  0
   -7.5299   -1.5668   -2.0873 C   0  0  0  0  0  3  0  0  0  0  0  0
   -5.2723   -0.9695   -1.1349 C   0  0  1  0  0  0  0  0  0  0  0  0
   -6.1449    0.0573   -0.4619 C   0  0  0  0  0  3  0  0  0  0  0  0
   -7.3284   -0.5405    0.1830 C   0  0  0  0  0  0  0  0  0  0  0  0
   -8.2382   -1.2159   -0.8421 C   0  0  1  0  0  0  0  0  0  0  0  0
   -9.3747   -0.4213   -1.0808 O   0  0  0  0  0  0  0  0  0  0  0  0
   -3.8637   -0.6384   -1.0717 C   0  0  0  0  0  0  0  0  0  0  0  0
   -3.2234   -0.3617    0.2399 C   0  0  2  0  0  0  0  0  0  0  0  0
   -3.7810    0.9941    1.0360 S   0  0  0  0  0  0  0  0  0  0  0  0
   -3.0711    2.2010   -0.7729 C   0  0  0  0  0  2  0  0  0  0  0  0
   -4.1605    1.8799    1.7605 C   0  0  0  0  0  3  0  0  0  0  0  0
   -5.4605    2.5565    2.2628 C   0  0  0  0  0  0  0  0  0  0  0  0
   -6.5574    2.1553    1.5616 O   0  0  0  0  0  0  0  0  0  0  0  0
   -6.3364    2.6382    0.2536 C   0  0  0  0  0  3  0  0  0  0  0  0
   -6.2521    4.1196    0.2545 C   0  0  1  0  0  0  0  0  0  0  0  0
   -4.9681    4.6084    0.1848 O   0  0  0  0  0  0  0  0  0  0  0  0
   -7.1949    4.7144   -0.7498 C   0  0  0  0  0  3  0  0  0  0  0  0
   -7.8227    5.8025   -0.1414 O   0  0  0  0  0  0  0  0  0  0  0  0
   -7.8810    5.6089    1.2612 C   0  0  0  0  0  2  0  0  0  0  0  0
   -1.8565   -0.4350    0.1485 O   0  0  0  0  0  0  0  0  0  0  0  0
   -1.4574   -1.6237   -0.4183 C   0  0  1  0  0  0  0  0  0  0  0  0
   -0.9548   -1.5843   -1.8045 C   0  0  0  0  0  0  0  0  0  0  0  0
   -1.7600   -1.0975   -2.7830 O   0  0  0  0  0  0  0  0  0  0  0  0
   -0.5598   -2.4253    0.4583 C   0  0  0  0  0  3  0  0  0  0  0  0
   -0.5324   -1.8814    1.7603 O   0  0  0  0  0  0  0  0  0  0  0  0
   -0.0268   -0.6557    1.6573 O   0  0  0  0  0  0  0  0  0  0  0  0
    0.9306   -0.6194    0.7191 C   0  0  0  0  0  3  0  0  0  0  0  0
    1.8394    0.4959    0.7131 O   0  0  0  0  0  0  0  0  0  0  0  0
    3.0119   -0.2494    0.6900 O   0  0  0  0  0  0  0  0  0  0  0  0
    2.7204   -1.2441   -0.3059 C   0  0  2  0  0  0  0  0  0  0  0  0
    3.1567   -2.4516    0.3660 O   0  0  0  0  0  0  0  0  0  0  0  0
    3.9537   -1.1352   -1.3591 C   0  0  0  0  0  3  0  0  0  0  0  0
    4.9645   -0.5518   -0.6149 O   0  0  0  0  0  0  0  0  0  0  0  0
    5.4516   -1.4601    0.3151 C   0  0  2  0  0  0  0  0  0  0  0  0
    6.2155   -0.6719    1.3991 C   0  0  0  0  0  0  0  0  0  0  0  0
    6.6046   -2.2522   -0.3955 C   0  0  0  0  0  3  0  0  0  0  0  0
    7.5551   -1.4877   -0.7574 O   0  0  0  0  0  0  0  0  0  0  0  0
    8.7290   -1.3195   -0.4604 O   0  0  0  0  0  0  0  0  0  0  0  0
    8.8563   -0.4642    0.6653 C   0  0  0  0  0  0  0  0  0  0  0  0
    9.8001    0.6336   -0.0308 C   0  0  2  0  0  0  0  0  0  0  0  0
   11.2290   -0.3153   -0.4632 S   0  0  0  0  0  0  0  0  0  0  0  0
   12.2375    0.4459   -1.6030 O   0  0  0  0  0  0  0  0  0  0  0  0
   13.1098    1.2253   -0.7596 C   0  0  0  0  0  0  0  0  0  0  0  0
   14.4571    0.4662   -0.8018 C   0  0  0  0  0  0  0  0  0  0  0  0
    9.9183    1.6549    1.1224 C   0  0  0  0  0  0  0  0  0  0  0  0
   10.0143    2.9447    0.4341 C   0  0  0  0  0  0  0  0  0  0  0  0
   10.7069    3.8423    0.5177 O   0  0  0  0  0  0  0  0  0  0  0  0
  1  2  1  0
  2  3  1  0
  3  4  1  0
  5  4  1  6
  5  6  1  0
  6  7  1  0
  5  8  1  0
  8  9  1  0
  9 10  1  0
 10 11  1  0
 11 12  1  6
  8 13  1  1
 14 13  1  6
 14 15  1  0
 15 16  1  0
 15 17  1  0
 17 18  1  0
 18 19  1  0
 19 20  1  0
 20 21  1  0
 21 22  1  6
 21 23  1  0
 23 24  1  0
 24 25  1  0
 14 26  1  0
 26 27  1  0
 27 28  1  6
 28 29  1  0
 27 30  1  0
 30 31  1  0
 31 32  1  0
 32 33  1  0
 33 34  1  0
 34 35  1  0
 35 36  1  0
 36 37  1  1
 36 38  1  0
 38 39  1  0
 39 40  1  0
 40 41  1  1
 40 42  1  0
 42 43  1  0
 43 44  1  0
 44 45  1  0
 46 45  1  1
 46 47  1  0
 47 48  1  0
 48 49  1  0
 49 50  1  0
 46 51  1  0
 51 52  1  0
 52 53  2  0
 11  7  1  0
M  RAD  8   3   2   7   2   9   2  16   3  17   2  20   2  23   2  25   3
M  RAD  4  30   2  33   2  38   2  42   2
M  END
$$$$
