
     RDKit          3D

 25 26  0  0  0  0  0  0  0  0999 V2000
    1.9562   -2.2433    1.1539 C   0  0  0  0  0  0  0  0  0  0  0  0
    1.6849   -0.7766    0.8734 C   0  0  1  0  0  0  0  0  0  0  0  0
    2.8196    0.0126    1.5215 C   0  0  0  0  0  0  0  0  0  0  0  0
    3.4150    1.0173    0.5420 C   0  0  2  0  0  0  0  0  0  0  0  0
    2.3331    1.7629    0.0593 O   0  0  0  0  0  0  0  0  0  0  0  0
    4.0212    0.3071   -0.6613 C   0  0  2  0  0  0  0  0  0  0  0  0
    4.0988    1.1979   -1.7436 O   0  0  0  0  0  0  0  0  0  0  0  0
    3.0784   -0.8025   -1.1135 C   0  0  1  0  0  0  0  0  0  0  0  0
    3.5319   -1.9664   -0.4721 O   0  0  0  0  0  0  0  0  0  0  0  0
    1.7113   -0.4372   -0.5932 C   0  0  1  0  0  0  0  0  0  0  0  0
    0.6359   -1.0181   -1.3390 N   0  0  0  0  0  0  0  0  0  0  0  0
   -0.6024   -0.6984   -0.7153 C   0  0  1  0  0  0  0  0  0  0  0  0
   -0.6694   -1.1096    0.7447 C   0  0  0  0  0  0  0  0  0  0  0  0
   -2.0666   -1.5863    1.1083 C   0  0  0  0  0  0  0  0  0  0  0  0
   -2.6174   -0.6396    1.9771 O   0  0  0  0  0  0  0  0  0  0  0  0
   -2.8675   -1.6862   -0.1597 C   0  0  1  0  0  0  0  0  0  0  0  0
   -3.9585   -2.7142   -0.1041 C   0  0  0  0  0  0  0  0  0  0  0  0
   -3.3630   -0.3363   -0.5953 C   0  0  1  0  0  0  0  0  0  0  0  0
   -4.5911   -0.0967    0.0340 O   0  0  0  0  0  0  0  0  0  0  0  0
   -2.4472    0.7878   -0.1932 C   0  0  2  0  0  0  0  0  0  0  0  0
   -3.1340    2.0838   -0.5774 C   0  0  0  0  0  0  0  0  0  0  0  0
   -1.1050    0.6987   -0.8764 C   0  0  1  0  0  0  0  0  0  0  0  0
   -0.2509    1.6197   -0.2562 O   0  0  0  0  0  0  0  0  0  0  0  0
   -0.9195    2.4374    0.5323 O   0  0  0  0  0  0  0  0  0  0  0  0
   -0.6937    4.1864    0.0143 Br  0  0  0  0  0  0  0  0  0  0  0  0
  2  1  1  6
  2  3  1  0
  3  4  1  0
  4  5  1  6
  4  6  1  0
  6  7  1  6
  6  8  1  0
  8  9  1  1
  8 10  1  0
 10 11  1  6
 12 11  1  1
 12 13  1  0
 13 14  1  0
 14 15  1  0
 14 16  1  0
 16 17  1  1
 16 18  1  0
 18 19  1  1
 18 20  1  0
 20 21  1  6
 20 22  1  0
 22 23  1  1
 23 24  1  0
 24 25  1  0
 10  2  1  0
 22 12  1  0
M  END
$$$$
