
     RDKit          3D

 17 18  0  0  0  0  0  0  0  0999 V2000
    1.7779    0.0074   -1.2546 C   0  0  0  0  0  0  0  0  0  0  0  0
    2.9151    0.8455   -1.1815 O   0  0  0  0  0  0  0  0  0  0  0  0
    4.0436    0.6847   -0.3901 C   0  0  0  0  0  0  0  0  0  0  0  0
    4.3050   -0.1627    0.5940 C   0  0  0  0  0  0  0  0  0  0  0  0
    3.3386   -1.1819    1.0599 C   0  0  0  0  0  0  0  0  0  0  0  0
    2.0255   -1.2363    0.8861 C   0  0  0  0  0  0  0  0  0  0  0  0
    1.2379   -0.2169    0.1440 C   0  0  0  0  0  0  0  0  0  0  0  0
   -0.5411   -0.5225    0.2498 S   0  0  0  0  0  0  0  0  0  0  0  0
   -1.2912   -1.8348    0.8401 C   0  0  0  0  0  0  0  0  0  0  0  0
   -2.7425   -1.7896    0.7906 C   0  0  0  0  0  0  0  0  0  0  0  0
   -3.4669   -0.7989    0.3195 C   0  0  0  0  0  0  0  0  0  0  0  0
   -4.8380   -0.9512    0.3627 F   0  0  0  0  0  0  0  0  0  0  0  0
   -2.9537    0.4388   -0.2411 C   0  0  0  0  0  0  0  0  0  0  0  0
   -1.6740    0.7481   -0.3585 C   0  0  0  0  0  0  0  0  0  0  0  0
   -1.1912    2.0289   -0.9396 C   0  0  0  0  0  0  0  0  0  0  0  0
   -2.4003    2.8367   -1.3359 C   0  0  0  0  0  0  0  0  0  0  0  0
    1.4552    1.1047    0.8921 C   0  0  0  0  0  0  0  0  0  0  0  0
  1  2  1  0
  2  3  1  0
  3  4  2  0
  4  5  1  0
  5  6  2  0
  6  7  1  0
  7  8  1  0
  8  9  2  0
  9 10  1  0
 10 11  2  0
 11 12  1  0
 11 13  1  0
 13 14  2  0
 14 15  1  0
 15 16  1  0
  7 17  1  0
  7  1  1  0
 14  8  1  0
M  END
$$$$
