
     RDKit          3D

 54 57  0  0  0  0  0  0  0  0999 V2000
   -0.3397    4.2106    1.5119 C   0  0  0  0  0  0  0  0  0  0  0  0
   -1.4487    4.9313    0.7772 C   0  0  0  0  0  0  0  0  0  0  0  0
   -1.1674    6.3969    0.5933 C   0  0  0  0  0  0  0  0  0  0  0  0
   -2.7674    4.8043    1.5012 C   0  0  0  0  0  0  0  0  0  0  0  0
   -3.8211    4.1562    0.6250 C   0  0  0  0  0  0  0  0  0  0  0  0
   -4.5574    3.0988    1.4216 C   0  0  0  0  0  0  0  0  0  0  0  0
   -3.8126    1.7878    1.3198 C   0  0  1  0  0  0  0  0  0  0  0  0
   -3.3584    1.3635    2.6969 C   0  0  0  0  0  0  0  0  0  0  0  0
   -4.7715    0.7784    0.7194 C   0  0  0  0  0  3  0  0  0  0  0  0
   -4.0167   -0.4843    0.3539 C   0  0  0  0  0  0  0  0  0  0  0  0
   -4.5838   -1.0957   -0.9007 C   0  0  0  0  0  0  0  0  0  0  0  0
   -3.9849   -0.3923   -2.0968 C   0  0  0  0  0  0  0  0  0  0  0  0
   -4.7557   -0.8363   -3.3215 C   0  0  0  0  0  0  0  0  0  0  0  0
   -4.0638    1.1017   -1.8855 C   0  0  0  0  0  0  0  0  0  0  0  0
   -2.5688   -0.8294   -2.2163 C   0  0  0  0  0  0  0  0  0  0  0  0
   -2.0050   -0.8736   -3.4252 C   0  0  0  0  0  0  0  0  0  0  0  0
   -0.6194   -1.2873   -3.6677 C   0  0  0  0  0  0  0  0  0  0  0  0
    0.3224   -1.0119   -2.5442 C   0  0  0  0  0  0  0  0  0  0  0  0
    0.1313   -1.8752   -1.3427 C   0  0  0  0  0  0  0  0  0  0  0  0
   -0.5035   -1.2564   -0.2909 O   0  0  0  0  0  0  0  0  0  0  0  0
   -0.4504   -3.2089   -1.6785 C   0  0  0  0  0  0  0  0  0  0  0  0
   -1.4608   -3.6350   -0.6456 C   0  0  0  0  0  0  0  0  0  0  0  0
   -0.9144   -4.6140    0.3514 C   0  0  0  0  0  0  0  0  0  0  0  0
   -1.3917   -4.1837    1.7339 C   0  0  2  0  0  0  0  0  0  0  0  0
   -2.3492   -3.1778    1.6373 O   0  0  0  0  0  0  0  0  0  0  0  0
   -3.2705   -3.4851    0.7531 O   0  0  0  0  0  0  0  0  0  0  0  0
   -4.4699   -2.8351    1.0957 C   0  0  0  0  0  0  0  0  0  0  0  0
   -4.1547   -1.4371    1.5360 C   0  0  0  0  0  0  0  0  0  0  0  0
   -0.2624   -3.6561    2.3820 O   0  0  0  0  0  0  0  0  0  0  0  0
    0.8526   -4.4193    1.9957 C   0  0  0  0  0  0  0  0  0  0  0  0
    1.6715   -4.5235    3.1142 O   0  0  0  0  0  0  0  0  0  0  0  0
    2.7007   -3.5778    2.9415 C   0  0  0  0  0  0  0  0  0  0  0  0
    3.1758   -3.6382    1.5043 C   0  0  0  0  0  0  0  0  0  0  0  0
    4.6425   -4.6893    1.3286 S   0  0  0  0  0  0  0  0  0  0  0  0
    5.0910   -4.6856   -0.3272 O   0  0  0  0  0  0  0  0  0  0  0  0
    3.4780   -2.2369    1.0657 C   0  0  0  0  0  0  0  0  0  0  0  0
    3.6384   -2.1246   -0.4390 C   0  0  0  0  0  0  0  0  0  0  0  0
    3.5291   -0.6596   -0.7847 C   0  0  0  0  0  0  0  0  0  0  0  0
    2.6640   -0.4002   -1.9723 C   0  0  0  0  0  0  0  0  0  0  0  0
    4.8682    0.0240   -0.8588 C   0  0  0  0  0  0  0  0  0  0  0  0
    4.7780    1.2908   -0.0268 C   0  0  0  0  0  0  0  0  0  0  0  0
    5.6289    2.3503   -0.6851 C   0  0  0  0  0  0  0  0  0  0  0  0
    5.3251    3.9591   -0.0086 S   0  0  0  0  0  3  0  0  0  0  0  0
    4.5099    5.0182   -1.1770 C   0  0  0  0  0  0  0  0  0  0  0  0
    4.4923    3.8839    1.4434 O   0  0  0  0  0  0  0  0  0  0  0  0
    3.1967    3.4058    1.2753 C   0  0  0  0  0  0  0  0  0  0  0  0
    2.1561    4.4491    1.5451 C   0  0  0  0  0  3  0  0  0  0  0  0
    0.9186    4.2539    0.7068 C   0  0  1  0  0  0  0  0  0  0  0  0
    1.1337    2.8797   -0.3617 S   0  0  0  0  0  3  0  0  0  0  0  0
    1.2389    3.3103   -1.9774 O   0  0  0  0  0  0  0  0  0  0  0  0
   -0.0205    1.5871   -0.0786 C   0  0  0  0  0  0  0  0  0  0  0  0
   -0.5327    1.0403   -1.3730 C   0  0  0  0  0  0  0  0  0  0  0  0
    0.5254    0.4317   -2.2371 C   0  0  0  0  0  0  0  0  0  0  0  0
    1.7541    0.6162   -1.6073 O   0  0  0  0  0  0  0  0  0  0  0  0
  1  2  1  0
  2  3  1  0
  2  4  1  0
  4  5  1  0
  5  6  1  0
  6  7  1  0
  7  8  1  1
  7  9  1  0
  9 10  1  0
 10 11  1  0
 11 12  1  0
 12 13  1  0
 12 14  1  0
 12 15  1  0
 15 16  2  3
 16 17  1  0
 17 18  1  0
 18 19  1  0
 19 20  1  0
 19 21  1  0
 21 22  1  0
 22 23  1  0
 23 24  1  0
 24 25  1  6
 25 26  1  0
 26 27  1  0
 27 28  1  0
 24 29  1  0
 29 30  1  0
 30 31  1  0
 31 32  1  0
 32 33  1  0
 33 34  1  0
 34 35  1  0
 33 36  1  0
 36 37  1  0
 37 38  1  0
 38 39  1  0
 38 40  1  0
 40 41  1  0
 41 42  1  0
 42 43  1  0
 43 44  1  0
 43 45  1  0
 45 46  1  0
 46 47  1  0
 48 47  1  1
 48 49  1  0
 49 50  1  0
 49 51  1  0
 51 52  1  0
 52 53  1  0
 53 54  1  0
 48  1  1  0
 28 10  1  0
 53 18  1  0
 54 39  1  0
M  CHG  2  43   1  49   1
M  RAD  2   9   2  47   2
M  END
$$$$
