
     RDKit          3D

 17 16  0  0  0  0  0  0  0  0999 V2000
    6.7445    2.4815   -2.0448 C   0  0  0  0  0  0  0  0  0  0  0  0
    5.2365    2.5474   -1.9635 C   0  0  0  0  0  0  0  0  0  0  0  0
    4.7653    1.2884   -1.2719 C   0  0  0  0  0  0  0  0  0  0  0  0
    3.2789    1.2317   -1.1273 C   0  0  0  0  0  0  0  0  0  0  0  0
    2.9220   -0.0374   -0.4377 C   0  0  0  0  0  0  0  0  0  0  0  0
    3.7877   -0.8413   -0.0849 O   0  0  0  0  0  0  0  0  0  0  0  0
    1.5395   -0.3310   -0.1786 N   0  0  0  0  0  0  0  0  0  0  0  0
    1.1972   -1.5806    0.5016 C   0  0  0  0  0  3  0  0  0  0  0  0
    0.1800   -1.2963    1.6052 C   0  0  0  0  0  0  0  0  0  0  0  0
   -1.1833   -1.4197    1.0539 C   0  0  0  0  0  0  0  0  0  0  0  0
   -1.3453   -1.7347   -0.1809 O   0  0  0  0  0  0  0  0  0  0  0  0
   -2.3077   -1.2028    1.8363 N   0  0  0  0  0  0  0  0  0  0  0  0
   -3.6535   -1.3033    1.3754 C   0  0  0  0  0  0  0  0  0  0  0  0
   -4.3936   -0.1902    1.4721 C   0  0  0  0  0  0  0  0  0  0  0  0
   -5.7941   -0.1028    1.0505 C   0  0  0  0  0  0  0  0  0  0  0  0
   -5.9397    0.9139   -0.0048 C   0  0  0  0  0  0  0  0  0  0  0  0
   -5.0345    1.5770   -0.4581 O   0  0  0  0  0  0  0  0  0  0  0  0
  1  2  1  0
  2  3  1  0
  3  4  1  0
  4  5  1  0
  5  6  2  0
  5  7  1  0
  7  8  1  0
  8  9  1  0
  9 10  1  0
 10 11  2  0
 10 12  1  0
 12 13  1  0
 13 14  2  3
 14 15  1  0
 15 16  1  0
 16 17  2  0
M  RAD  1   8   2
M  END
$$$$
