
     RDKit          3D

 28 30  0  0  0  0  0  0  0  0999 V2000
   -2.8755    1.2215   -1.4261 C   0  0  0  0  0  0  0  0  0  0  0  0
   -1.3805    1.3469   -1.6108 C   0  0  0  0  0  0  0  0  0  0  0  0
   -0.7266    0.2103   -2.3087 C   0  0  0  0  0  0  0  0  0  0  0  0
   -0.9853   -1.0418   -1.5263 C   0  0  0  0  0  0  0  0  0  0  0  0
   -0.6630   -0.9802   -0.0834 C   0  0  0  0  0  0  0  0  0  0  0  0
   -0.7244   -2.3042    0.4116 O   0  0  0  0  0  0  0  0  0  0  0  0
   -1.5388   -0.1559    0.7771 C   0  0  0  0  0  0  0  0  0  0  0  0
   -2.9446   -0.6025    0.8113 C   0  0  0  0  0  0  0  0  0  0  0  0
   -3.8457    0.2096    1.6697 C   0  0  0  0  0  0  0  0  0  0  0  0
   -5.2485   -0.4054    1.5749 C   0  0  0  0  0  0  0  0  0  0  0  0
   -5.5916   -0.3295    0.2097 O   0  0  0  0  0  0  0  0  0  0  0  0
   -1.3221    1.1987    0.7052 O   0  0  0  0  0  0  0  0  0  0  0  0
   -0.5197    1.5728   -0.3240 C   0  0  0  0  0  0  0  0  0  0  0  0
   -0.7946    2.6315   -1.2989 C   0  0  0  0  0  0  0  0  0  0  0  0
   -1.6191    3.6580   -0.9114 O   0  0  0  0  0  0  0  0  0  0  0  0
    0.7960    0.9016   -0.4207 C   0  0  0  0  0  0  0  0  0  0  0  0
    1.3315    0.9454   -1.6884 O   0  0  0  0  0  0  0  0  0  0  0  0
    0.7795   -0.4754    0.1884 C   0  0  0  0  0  0  0  0  0  0  0  0
    0.8020   -0.2787    1.7071 C   0  0  0  0  0  0  0  0  0  0  0  0
    1.7648   -1.4195   -0.2935 C   0  0  0  0  0  0  0  0  0  0  0  0
    3.0532   -1.2215   -0.1728 O   0  0  0  0  0  0  0  0  0  0  0  0
    3.6447   -0.0303   -0.1947 C   0  0  0  0  0  0  0  0  0  0  0  0
    3.2654    0.9035    0.9190 C   0  0  0  0  0  0  0  0  0  0  0  0
    3.9738    2.2001    0.8088 C   0  0  0  0  0  0  0  0  0  0  0  0
    4.7421    2.3594   -0.1186 O   0  0  0  0  0  0  0  0  0  0  0  0
    1.2977   -2.7127   -0.2460 O   0  0  0  0  0  0  0  0  0  0  0  0
    2.1546   -3.6004   -0.6721 O   0  0  0  0  0  0  0  0  0  0  0  0
    3.1748   -3.8016    0.1937 N   0  0  0  0  0  0  0  0  0  0  0  0
  1  2  1  0
  2  3  1  0
  3  4  1  0
  4  5  1  0
  5  6  1  0
  5  7  1  0
  7  8  1  0
  8  9  1  0
  9 10  1  0
 10 11  1  0
  7 12  1  0
 12 13  1  0
 13 14  1  0
 14 15  1  0
 13 16  1  0
 16 17  1  0
 16 18  1  0
 18 19  1  0
 18 20  1  0
 20 21  1  0
 21 22  1  0
 22 23  1  0
 23 24  1  0
 24 25  2  0
 20 26  1  0
 26 27  1  0
 27 28  1  0
 13  2  1  0
 14  2  1  0
 18  5  1  0
M  END
$$$$
