
     RDKit          2D

 55 54  0  0  0  0  0  0  0  0999 V2000
   -5.1962    7.5000    0.0000 O   0  0  0  0  0  0  0  0  0  0  0  0
   -3.8971    6.7500    0.0000 C   0  0  0  0  0  0  0  0  0  0  0  0
   -2.5981    7.5000    0.0000 C   0  0  0  0  0  3  0  0  0  0  0  0
   -1.2990    6.7500    0.0000 N   0  0  0  0  0  0  0  0  0  0  0  0
   -0.0000    7.5000    0.0000 C   0  0  0  0  0  0  0  0  0  0  0  0
   -0.0000    9.0000    0.0000 C   0  0  0  0  0  0  0  0  0  0  0  0
   -1.2990    9.7500    0.0000 O   0  0  0  0  0  0  0  0  0  0  0  0
    1.2990    6.7500    0.0000 C   0  0  0  0  0  0  0  0  0  0  0  0
    2.5981    7.5000    0.0000 O   0  0  0  0  0  0  0  0  0  0  0  0
    1.2990    5.2500    0.0000 C   0  0  0  0  0  0  0  0  0  0  0  0
   -0.0000    4.5000    0.0000 O   0  0  0  0  0  0  0  0  0  0  0  0
    2.5981    4.5000    0.0000 O   0  0  0  0  0  0  0  0  0  0  0  0
    2.5981    3.0000    0.0000 C   0  0  0  0  0  3  0  0  0  0  0  0
    3.8971    2.2500    0.0000 S   0  0  0  0  0  0  0  0  0  0  0  0
    3.8971    0.7500    0.0000 C   0  0  0  0  0  0  0  0  0  0  0  0
    2.5981   -0.0000    0.0000 O   0  0  0  0  0  0  0  0  0  0  0  0
    5.1962    0.0000    0.0000 O   0  0  0  0  0  0  0  0  0  0  0  0
    6.4952    0.7500    0.0000 C   0  0  0  0  0  0  0  0  0  0  0  0
    7.7942    0.0000    0.0000 C   0  0  0  0  0  0  0  0  0  0  0  0
    6.4952    2.2500    0.0000 O   0  0  0  0  0  0  0  0  0  0  0  0
    5.1962    3.0000    0.0000 O   0  0  0  0  0  0  0  0  0  0  0  0
    5.1962    4.5000    0.0000 C   0  0  0  0  0  0  0  0  0  0  0  0
    3.8971    5.2500    0.0000 S   0  0  0  0  0  0  0  0  0  0  0  0
    3.8971    6.7500    0.0000 O   0  0  0  0  0  0  0  0  0  0  0  0
    5.1962    7.5000    0.0000 C   0  0  0  0  0  0  0  0  0  0  0  0
    6.4952    6.7500    0.0000 O   0  0  0  0  0  0  0  0  0  0  0  0
    5.1962    9.0000    0.0000 C   0  0  0  0  0  0  0  0  0  0  0  0
    6.4952    9.7500    0.0000 O   0  0  0  0  0  0  0  0  0  0  0  0
    6.4952   11.2500    0.0000 S   0  0  0  0  0  0  0  0  0  0  0  0
    4.9952   11.2500    0.0000 O   0  0  0  0  0  0  0  0  0  0  0  0
    7.9952   11.2500    0.0000 O   0  0  0  0  0  0  0  0  0  0  0  0
    6.4952   12.7500    0.0000 O   0  0  0  0  0  0  0  0  0  0  0  0
    5.1962   13.5000    0.0000 C   0  0  0  0  0  3  0  0  0  0  0  0
    5.1962   15.0000    0.0000 O   0  0  0  0  0  0  0  0  0  0  0  0
    3.8971   15.7500    0.0000 S   0  0  0  0  0  0  0  0  0  0  0  0
    3.8971   17.2500    0.0000 O   0  0  0  0  0  0  0  0  0  0  0  0
    2.5981   18.0000    0.0000 O   0  0  0  0  0  0  0  0  0  0  0  0
    2.5981   19.5000    0.0000 O   0  0  0  0  0  0  0  0  0  0  0  0
    1.2990   20.2500    0.0000 C   0  0  0  0  0  0  0  0  0  0  0  0
    0.0000   19.5000    0.0000 O   0  0  0  0  0  0  0  0  0  0  0  0
    1.2990   21.7500    0.0000 C   0  0  0  0  0  3  0  0  0  0  0  0
    0.0000   22.5000    0.0000 O   0  0  0  0  0  0  0  0  0  0  0  0
    0.0000   24.0000    0.0000 C   0  0  0  0  0  3  0  0  0  0  0  0
   -1.2990   24.7500    0.0000 C   0  0  0  0  0  0  0  0  0  0  0  0
   -1.2990   26.2500    0.0000 O   0  0  0  0  0  0  0  0  0  0  0  0
   -2.5981   27.0000    0.0000 C   0  0  0  0  0  0  0  0  0  0  0  0
   -3.8971   26.2500    0.0000 S   0  0  0  0  0  0  0  0  0  0  0  0
   -2.5981   28.5000    0.0000 C   0  0  0  0  0  0  0  0  0  0  0  0
   -3.8971   29.2500    0.0000 O   0  0  0  0  0  0  0  0  0  0  0  0
   -3.8971   30.7500    0.0000 C   0  0  0  0  0  0  0  0  0  0  0  0
   -2.5981   31.5000    0.0000 S   0  0  0  0  0  0  0  0  0  0  0  0
   -2.5981   33.0000    0.0000 C   0  0  0  0  0  3  0  0  0  0  0  0
   -1.2990   33.7500    0.0000 O   0  0  0  0  0  0  0  0  0  0  0  0
   -5.1962   31.5000    0.0000 C   0  0  0  0  0  3  0  0  0  0  0  0
   -5.1962   33.0000    0.0000 O   0  0  0  0  0  0  0  0  0  0  0  0
  1  2  1  0
  2  3  1  0
  3  4  1  0
  4  5  1  0
  5  6  1  6
  6  7  1  0
  5  8  1  0
  8  9  1  1
  8 10  1  0
 10 11  1  1
 10 12  1  0
 12 13  1  0
 13 14  1  0
 14 15  1  0
 15 16  1  0
 15 17  1  0
 17 18  1  0
 18 19  1  6
 18 20  1  0
 20 21  1  0
 21 22  1  0
 22 23  1  0
 23 24  1  0
 24 25  1  0
 25 26  1  1
 25 27  1  0
 27 28  1  0
 28 29  1  0
 29 30  1  0
 29 31  1  0
 29 32  1  0
 32 33  1  0
 33 34  1  0
 34 35  1  0
 35 36  1  0
 36 37  1  0
 37 38  1  0
 38 39  1  0
 39 40  1  1
 39 41  1  0
 41 42  1  0
 42 43  1  0
 43 44  1  0
 44 45  1  0
 45 46  1  0
 46 47  1  6
 46 48  1  0
 48 49  1  0
 49 50  1  0
 50 51  1  0
 51 52  1  0
 52 53  1  0
 50 54  1  1
 54 55  1  0
M  RAD  7   3   2  13   2  33   2  41   2  43   2  52   2  54   2
M  END
$$$$
