
     RDKit          2D

 57 62  0  0  0  0  0  0  0  0999 V2000
   14.7818   -4.6009    0.0000 C   0  0  0  0  0  0  0  0  0  0  0  0
   14.1888   -3.2230    0.0000 C   0  0  0  0  0  0  0  0  0  0  0  0
   15.1729   -2.0910    0.0000 C   0  0  0  0  0  0  0  0  0  0  0  0
   14.9014   -0.6158    0.0000 C   0  0  0  0  0  0  0  0  0  0  0  0
   13.5787    0.0918    0.0000 O   0  0  0  0  0  0  0  0  0  0  0  0
   13.6794   -1.1952    0.0000 C   0  0  0  0  0  0  0  0  0  0  0  0
   13.4986   -0.4548    0.0000 O   0  0  0  0  0  0  0  0  0  0  0  0
   13.0939   -1.8688    0.0000 C   0  0  0  0  0  0  0  0  0  0  0  0
   10.9717   -1.2888    0.0000 O   0  0  0  0  0  0  0  0  0  0  0  0
   12.6901   -3.1595    0.0000 C   0  0  0  0  0  0  0  0  0  0  0  0
   11.8054   -1.9482    0.0000 N   0  0  0  0  0  0  0  0  0  0  0  0
   10.3071   -2.0192    0.0000 C   0  0  0  0  0  3  0  0  0  0  0  0
    9.7766   -0.6162    0.0000 C   0  0  0  0  0  0  0  0  0  0  0  0
   10.9470    0.3220    0.0000 O   0  0  0  0  0  0  0  0  0  0  0  0
   12.2009   -0.5012    0.0000 C   0  0  0  0  0  0  0  0  0  0  0  0
   12.3316    0.9931    0.0000 O   0  0  0  0  0  0  0  0  0  0  0  0
   13.6911    1.6270    0.0000 C   0  0  0  0  0  0  0  0  0  0  0  0
   14.9198    0.7666    0.0000 O   0  0  0  0  0  0  0  0  0  0  0  0
   13.8218    3.1213    0.0000 C   0  0  0  0  0  0  0  0  0  0  0  0
   15.1813    3.7552    0.0000 O   0  0  0  0  0  0  0  0  0  0  0  0
   12.5931    3.9817    0.0000 C   0  0  0  0  0  3  0  0  0  0  0  0
   12.7238    5.4759    0.0000 C   0  0  0  0  0  0  0  0  0  0  0  0
   14.1544    5.9270    0.0000 O   0  0  0  0  0  0  0  0  0  0  0  0
   14.8470    7.2575    0.0000 O   0  0  0  0  0  0  0  0  0  0  0  0
   14.3960    8.6881    0.0000 O   0  0  0  0  0  0  0  0  0  0  0  0
   13.0654    9.3807    0.0000 C   0  0  0  0  0  0  0  0  0  0  0  0
   13.1962   10.8750    0.0000 O   0  0  0  0  0  0  0  0  0  0  0  0
   11.6349    8.9297    0.0000 C   0  0  0  0  0  3  0  0  0  0  0  0
   10.9422    7.5991    0.0000 O   0  0  0  0  0  0  0  0  0  0  0  0
   11.3933    6.1686    0.0000 C   0  0  0  0  0  0  0  0  0  0  0  0
   10.2442    5.2044    0.0000 O   0  0  0  0  0  0  0  0  0  0  0  0
   10.5047    3.7272    0.0000 C   0  0  0  0  0  0  0  0  0  0  0  0
   11.9142    3.2141    0.0000 N   0  0  0  0  0  0  0  0  0  0  0  0
    9.3556    2.7630    0.0000 C   0  0  0  0  0  3  0  0  0  0  0  0
    7.9461    3.2760    0.0000 C   0  0  0  0  0  3  0  0  0  0  0  0
    6.7970    2.3118    0.0000 O   0  0  0  0  0  0  0  0  0  0  0  0
    5.3875    2.8249    0.0000 C   0  0  0  0  0  3  0  0  0  0  0  0
    4.2384    1.8607    0.0000 C   0  0  0  0  0  3  0  0  0  0  0  0
    2.8289    2.3737    0.0000 C   0  0  0  0  0  0  0  0  0  0  0  0
    1.6798    1.4095    0.0000 C   0  0  0  0  0  0  0  0  0  0  0  0
    2.1929    0.0000    0.0000 O   0  0  0  0  0  0  0  0  0  0  0  0
    1.6798   -1.4095    0.0000 C   0  0  0  0  0  3  0  0  0  0  0  0
    0.3808   -2.1595    0.0000 O   0  0  0  0  0  0  0  0  0  0  0  0
   -1.0964   -1.8991    0.0000 C   0  0  0  0  0  0  0  0  0  0  0  0
   -2.0606   -0.7500    0.0000 C   0  0  0  0  0  0  0  0  0  0  0  0
   -2.0606    0.7500    0.0000 C   0  0  0  0  0  0  0  0  0  0  0  0
   -1.0964    1.8991    0.0000 O   0  0  0  0  0  0  0  0  0  0  0  0
    0.3808    2.1595    0.0000 C   0  0  0  0  0  0  0  0  0  0  0  0
    0.5671    3.6684    0.0000 O   0  0  0  0  0  0  0  0  0  0  0  0
   -0.1829    4.9674    0.0000 C   0  0  0  0  0  0  0  0  0  0  0  0
   -1.5532    5.5775    0.0000 C   0  0  0  0  0  0  0  0  0  0  0  0
   -1.3964    7.0693    0.0000 O   0  0  0  0  0  0  0  0  0  0  0  0
   -3.0204    5.2656    0.0000 C   0  0  0  0  0  0  0  0  0  0  0  0
   -3.7704    6.5647    0.0000 O   0  0  0  0  0  0  0  0  0  0  0  0
   -4.0241    4.1509    0.0000 C   0  0  0  0  0  0  0  0  0  0  0  0
   -4.1809    2.6591    0.0000 O   0  0  0  0  0  0  0  0  0  0  0  0
   -3.4309    1.3601    0.0000 O   0  0  0  0  0  0  0  0  0  0  0  0
  2  1  1  6
  2  3  1  0
  4  3  1  1
  4  5  1  0
  4  6  1  0
  6  7  1  1
  6  8  1  0
  8  9  1  6
  8 10  1  0
 10 11  1  6
 11 12  1  0
 12 13  1  0
 13 14  1  0
 14 15  1  0
 15 16  1  0
 16 17  1  0
 17 18  1  6
 17 19  1  0
 19 20  1  1
 19 21  1  0
 21 22  1  0
 22 23  1  0
 23 24  1  0
 24 25  1  0
 25 26  1  0
 26 27  1  6
 26 28  1  0
 28 29  1  0
 29 30  1  0
 30 31  1  1
 31 32  1  0
 32 33  1  6
 32 34  1  0
 34 35  1  0
 35 36  1  0
 36 37  1  0
 37 38  1  0
 38 39  1  0
 39 40  1  0
 40 41  1  0
 41 42  1  0
 42 43  1  0
 43 44  1  0
 44 45  1  0
 45 46  1  0
 46 47  1  0
 47 48  1  0
 48 49  1  1
 49 50  1  0
 50 51  1  0
 51 52  1  1
 51 53  1  0
 53 54  1  1
 53 55  1  0
 55 56  1  0
 56 57  1  0
 10  2  1  0
 15  5  1  0
 15 11  1  0
 30 22  1  0
 48 40  1  0
 57 46  1  0
M  RAD  8  12   2  21   2  28   2  34   2  35   2  37   2  38   2  42   2
M  END
$$$$
