
     RDKit          3D

 36 35  0  0  0  0  0  0  0  0999 V2000
    8.6142    3.0463    0.2583 C   0  0  0  0  0  0  0  0  0  0  0  0
    7.2251    2.9982   -0.3009 C   0  0  0  0  0  0  0  0  0  0  0  0
    6.4129    2.0222    0.4615 C   0  0  0  0  0  0  0  0  0  0  0  0
    6.3595    0.3460   -0.0362 S   0  0  0  0  0  0  0  0  0  0  0  0
    4.7127   -0.3819    0.0737 C   0  0  0  0  0  0  0  0  0  0  0  0
    4.0231   -0.1377   -1.2717 C   0  0  0  0  0  0  0  0  0  0  0  0
    3.6510    1.2892   -1.3774 C   0  0  0  0  0  0  0  0  0  0  0  0
    2.5869    1.7894   -0.4683 C   0  0  0  0  0  0  0  0  0  0  0  0
    2.9089    2.2225    0.8786 C   0  0  0  0  0  0  0  0  0  0  0  0
    0.9484    1.4057   -0.8991 S   0  0  0  0  0  0  0  0  0  0  0  0
    0.3400   -0.2491   -0.7763 C   0  0  0  0  0  0  0  0  0  0  0  0
    1.3643   -1.2670   -1.2826 C   0  0  0  0  0  0  0  0  0  0  0  0
    1.2834   -2.6038   -0.5486 C   0  0  0  0  0  3  0  0  0  0  0  0
    2.4764   -2.7030    0.2293 O   0  0  0  0  0  0  0  0  0  0  0  0
    1.9965   -2.4412    1.5358 C   0  0  0  0  0  0  0  0  0  0  0  0
    3.0749   -1.5151    2.1300 C   0  0  0  0  0  3  0  0  0  0  0  0
    4.0416   -0.8315    0.6754 S   0  0  0  0  0  0  0  0  0  0  0  0
    2.2886   -0.3599    2.5598 O   0  0  0  0  0  0  0  0  0  0  0  0
   -0.1370   -0.6595    0.5962 C   0  0  0  0  0  0  0  0  0  0  0  0
   -1.3842   -1.5622    0.4887 C   0  0  0  0  0  0  0  0  0  0  0  0
   -1.5260   -2.5334    1.6128 C   0  0  0  0  0  0  0  0  0  0  0  0
   -2.6626   -0.6282    0.6181 C   0  0  0  0  0  0  0  0  0  0  0  0
   -2.5601    0.4738   -0.3553 C   0  0  0  0  0  0  0  0  0  0  0  0
   -3.7359    1.1660   -0.6443 O   0  0  0  0  0  0  0  0  0  0  0  0
   -4.7025    0.2577   -1.0208 N   0  0  0  0  0  0  0  0  0  0  0  0
   -5.7491    0.3486   -0.0506 C   0  0  0  0  0  0  0  0  0  0  0  0
   -5.6980    1.6554    0.6665 C   0  0  0  0  0  0  0  0  0  0  0  0
   -5.4538    2.8565   -0.1302 C   0  0  0  0  0  0  0  0  0  0  0  0
   -5.7889    4.0280    0.5249 O   0  0  0  0  0  0  0  0  0  0  0  0
   -5.8492    5.2444   -0.1772 C   0  0  0  0  0  0  0  0  0  0  0  0
   -5.9097    6.2889   -0.7786 N   0  0  0  0  0  0  0  0  0  0  0  0
   -1.5098   -2.2184   -0.8462 C   0  0  0  0  0  0  0  0  0  0  0  0
   -2.9374   -2.5836   -1.1973 C   0  0  0  0  0  0  0  0  0  0  0  0
   -3.5850   -3.7420    0.0321 S   0  0  0  0  0  0  0  0  0  0  0  0
   -2.4025   -4.9384    0.3404 O   0  0  0  0  0  0  0  0  0  0  0  0
   -2.7166   -6.0829   -0.3918 C   0  0  0  0  0  0  0  0  0  0  0  0
  1  2  1  0
  2  3  1  0
  3  4  1  0
  4  5  1  0
  5  6  1  0
  6  7  1  0
  7  8  1  0
  8  9  1  0
  8 10  1  0
 10 11  1  0
 11 12  1  0
 12 13  1  0
 13 14  1  0
 14 15  1  0
 15 16  1  0
 16 17  1  0
 16 18  1  0
 11 19  1  0
 19 20  1  0
 20 21  1  0
 20 22  1  0
 22 23  1  0
 23 24  1  0
 24 25  1  0
 25 26  1  0
 26 27  1  0
 27 28  1  0
 28 29  1  0
 29 30  1  0
 30 31  3  0
 20 32  1  0
 32 33  1  0
 33 34  1  0
 34 35  1  0
 35 36  1  0
M  RAD  2  13   2  16   2
M  END
$$$$
