
     RDKit          3D

  5  4  0  0  0  0  0  0  0  0999 V2000
   -2.3943   -0.1953    0.4460 C   0  0  0  0  0  0  0  0  0  0  0  0
   -1.2184    0.0031   -0.0901 C   0  0  0  0  0  0  0  0  0  0  0  0
    0.0247   -0.0447    0.7089 C   0  0  0  0  0  0  0  0  0  0  0  0
    1.2014    0.1537    0.1730 C   0  0  0  0  0  0  0  0  0  0  0  0
    2.3866    0.0833    1.0667 C   0  0  0  0  0  0  0  0  0  0  0  0
  1  2  2  0
  2  3  1  0
  3  4  2  3
  4  5  1  0
M  END
$$$$
