
     RDKit          3D

 33 34  0  0  0  0  0  0  0  0999 V2000
   -5.1068    0.5595   -1.7392 C   0  0  0  0  0  0  0  0  0  0  0  0
   -4.1119   -0.3182   -1.3803 O   0  0  0  0  0  0  0  0  0  0  0  0
   -2.8430    0.0988   -1.7870 C   0  0  0  0  0  3  0  0  0  0  0  0
   -2.0999    0.3072   -0.6269 O   0  0  0  0  0  0  0  0  0  0  0  0
   -2.0618   -0.8874    0.0847 C   0  0  2  0  0  0  0  0  0  0  0  0
   -3.1985   -0.8649    1.0862 C   0  0  0  0  0  0  0  0  0  0  0  0
   -0.7887   -1.1213    0.8224 C   0  0  1  0  0  0  0  0  0  0  0  0
   -0.4773   -2.5173    0.9999 N   0  0  0  0  0  0  0  0  0  0  0  0
   -0.2775   -3.2083   -0.2525 C   0  0  0  0  0  3  0  0  0  0  0  0
   -1.5447   -3.2813   -1.0755 C   0  0  0  0  0  0  0  0  0  0  0  0
   -2.3463   -4.5210   -0.7681 C   0  0  2  0  0  0  0  0  0  0  0  0
   -3.8873   -4.6229   -1.7555 S   0  0  0  0  0  0  0  0  0  0  0  0
   -3.7101   -4.0339   -0.2079 O   0  0  0  0  0  0  0  0  0  0  0  0
    0.3589   -0.2587    0.4399 C   0  0  2  0  0  0  0  0  0  0  0  0
    0.1663    0.5561   -0.6437 O   0  0  0  0  0  0  0  0  0  0  0  0
    0.7079    2.1695   -0.3420 S   0  0  0  0  0  0  0  0  0  0  0  0
   -0.5336    2.9681    0.5279 O   0  0  0  0  0  0  0  0  0  0  0  0
   -0.8380    2.2378    1.6610 C   0  0  0  0  0  3  0  0  0  0  0  0
   -2.2977    2.2840    2.0194 C   0  0  0  0  0  3  0  0  0  0  0  0
   -3.0024    3.2352    1.3255 O   0  0  0  0  0  0  0  0  0  0  0  0
   -4.2637    2.7498    0.9513 C   0  0  0  0  0  3  0  0  0  0  0  0
   -4.1535    2.2915   -0.3601 O   0  0  0  0  0  0  0  0  0  0  0  0
   -5.3354    1.6215   -0.6684 C   0  0  0  0  0  3  0  0  0  0  0  0
    1.5463   -0.9693    0.2994 O   0  0  0  0  0  0  0  0  0  0  0  0
    2.5439   -0.0657   -0.0558 C   0  0  0  0  0  3  0  0  0  0  0  0
    3.2421    0.3120    1.0761 O   0  0  0  0  0  0  0  0  0  0  0  0
    4.5930    0.1308    0.8604 C   0  0  0  0  0  3  0  0  0  0  0  0
    4.8269   -0.3074   -0.4269 O   0  0  0  0  0  0  0  0  0  0  0  0
    5.9978    0.2444   -0.9304 C   0  0  0  0  0  3  0  0  0  0  0  0
    7.0494   -0.1581   -0.0842 O   0  0  0  0  0  0  0  0  0  0  0  0
    7.9202    0.8449    0.0827 O   0  0  0  0  0  0  0  0  0  0  0  0
    7.5377    2.1260   -0.2223 C   0  0  0  0  0  0  0  0  0  0  0  0
    6.3878    2.3985   -0.6576 O   0  0  0  0  0  0  0  0  0  0  0  0
  1  2  1  0
  2  3  1  0
  3  4  1  0
  4  5  1  0
  5  6  1  1
  5  7  1  0
  7  8  1  6
  8  9  1  0
  9 10  1  0
 11 10  1  6
 11 12  1  0
 11 13  1  0
  7 14  1  0
 14 15  1  0
 15 16  1  0
 16 17  1  0
 17 18  1  0
 18 19  1  0
 19 20  1  0
 20 21  1  0
 21 22  1  0
 22 23  1  0
 14 24  1  6
 24 25  1  0
 25 26  1  0
 26 27  1  0
 27 28  1  0
 28 29  1  0
 29 30  1  0
 30 31  1  0
 31 32  1  0
 32 33  2  0
 23  1  1  0
 13 12  1  0
M  RAD  8   3   2   9   2  18   2  19   2  21   2  23   2  25   2  27   2
M  RAD  1  29   2
M  END
$$$$
