
     RDKit          3D

  9  9  0  0  0  0  0  0  0  0999 V2000
   -1.6012   -0.3504    0.8227 C   0  0  0  0  0  0  0  0  0  0  0  0
   -1.8114    0.8612    0.1938 O   0  0  0  0  0  0  0  0  0  0  0  0
   -0.6715    1.6370    0.1081 C   0  0  0  0  0  3  0  0  0  0  0  0
    0.3739    1.0160   -0.5553 O   0  0  0  0  0  0  0  0  0  0  0  0
    0.6060   -0.2657   -0.0768 C   0  0  2  0  0  0  0  0  0  0  0  0
    2.0728   -0.6184   -0.1594 C   0  0  0  0  0  0  0  0  0  0  0  0
    2.7499    0.3291    0.6308 O   0  0  0  0  0  0  0  0  0  0  0  0
   -0.2580   -1.2524   -0.8313 C   0  0  0  0  0  3  0  0  0  0  0  0
   -1.4606   -1.3565   -0.1326 O   0  0  0  0  0  0  0  0  0  0  0  0
  1  2  1  0
  2  3  1  0
  3  4  1  0
  4  5  1  0
  5  6  1  6
  6  7  1  0
  5  8  1  0
  8  9  1  0
  9  1  1  0
M  RAD  2   3   2   8   2
M  END
$$$$
