
     RDKit          3D

 32 32  0  0  0  0  0  0  0  0999 V2000
   -5.6438   -1.1112    1.4403 C   0  0  0  0  0  0  0  0  0  0  0  0
   -6.5859   -1.4317    0.3083 C   0  0  0  0  0  0  0  0  0  0  0  0
   -5.8908   -1.4904   -1.0275 C   0  0  2  0  0  0  0  0  0  0  0  0
   -4.8322   -2.5674   -0.9701 C   0  0  0  0  0  0  0  0  0  0  0  0
   -5.2292   -0.1956   -1.3424 C   0  0  0  0  0  0  0  0  0  0  0  0
   -5.5880    0.4180   -2.3747 O   0  0  0  0  0  0  0  0  0  0  0  0
   -4.2449    0.3659   -0.5630 O   0  0  0  0  0  0  0  0  0  0  0  0
   -3.6377    1.6197   -0.9112 C   0  0  0  0  0  3  0  0  0  0  0  0
   -2.5966    1.9789    0.1283 C   0  0  0  0  0  0  0  0  0  0  0  0
   -1.2881    1.4022   -0.3094 C   0  0  2  0  0  0  0  0  0  0  0  0
   -1.4278    0.0187   -0.4095 O   0  0  0  0  0  0  0  0  0  0  0  0
   -0.1719    1.7119    0.5991 C   0  0  0  0  0  0  0  0  0  0  0  0
    0.9618    2.2669    0.2226 C   0  0  0  0  0  0  0  0  0  0  0  0
    2.0074    2.5390    1.1715 C   0  0  0  0  0  0  0  0  0  0  0  0
    3.2786    2.2890    1.0377 C   0  0  0  0  0  0  0  0  0  0  0  0
    3.8910    1.6549   -0.1649 C   0  0  2  0  0  0  0  0  0  0  0  0
    3.1557    2.1261   -1.3940 C   0  0  0  0  0  0  0  0  0  0  0  0
    3.7535    0.1712   -0.0757 C   0  0  2  0  0  0  0  0  0  0  0  0
    3.1717   -0.4797   -1.2815 C   0  0  0  0  0  0  0  0  0  0  0  0
    2.3670   -1.7113   -0.9776 C   0  0  0  0  0  0  0  0  0  0  0  0
    0.8973   -1.5181   -1.1958 C   0  0  0  0  0  0  0  0  0  0  0  0
    0.5569   -1.3929   -2.6796 C   0  0  0  0  0  0  0  0  0  0  0  0
    0.2434   -2.6609   -0.7313 O   0  0  0  0  0  0  0  0  0  0  0  0
   -0.0143   -2.5925    0.6252 C   0  0  0  0  0  3  0  0  0  0  0  0
   -1.4130   -2.0257    0.8000 C   0  0  0  0  0  0  0  0  0  0  0  0
   -1.2993   -0.5164    0.8794 C   0  0  0  0  0  0  0  0  0  0  0  0
   -2.1778    0.0427    1.7793 O   0  0  0  0  0  0  0  0  0  0  0  0
    3.2285   -0.3305    1.2275 C   0  0  0  0  0  3  0  0  0  0  0  0
    4.3390    0.1621    2.5630 S   0  0  0  0  0  0  0  0  0  0  0  0
    5.7542    1.1104    1.9506 C   0  0  0  0  0  0  0  0  0  0  0  0
    6.6268    0.2248    1.0876 C   0  0  0  0  0  0  0  0  0  0  0  0
    7.8084    1.0495    0.5877 C   0  0  0  0  0  2  0  0  0  0  0  0
  1  2  1  0
  2  3  1  0
  3  4  1  1
  3  5  1  0
  5  6  2  0
  5  7  1  0
  7  8  1  0
  8  9  1  0
 10  9  1  1
 10 11  1  0
 10 12  1  0
 12 13  2  3
 13 14  1  0
 14 15  2  3
 15 16  1  0
 16 17  1  6
 16 18  1  0
 18 19  1  0
 19 20  1  0
 20 21  1  0
 21 22  1  0
 21 23  1  0
 23 24  1  0
 24 25  1  0
 25 26  1  0
 26 27  1  0
 18 28  1  1
 28 29  1  0
 29 30  1  0
 30 31  1  0
 31 32  1  0
 26 11  1  0
M  RAD  4   8   2  24   2  28   2  32   3
M  END
$$$$
