
     RDKit          3D

 31 30  0  0  0  0  0  0  0  0999 V2000
    4.0271    2.7161   -1.2922 C   0  0  0  0  0  0  0  0  0  0  0  0
    4.3472    3.4212   -0.2301 C   0  0  0  0  0  0  0  0  0  0  0  0
    4.1591    4.9025   -0.2901 C   0  0  0  0  0  0  0  0  0  0  0  0
    4.8842    2.8047    1.0165 C   0  0  0  0  0  0  0  0  0  0  0  0
    4.9712    1.3135    0.8046 C   0  0  0  0  0  0  0  0  0  0  0  0
    5.8985    0.9869   -0.3673 C   0  0  0  0  0  0  0  0  0  0  0  0
    5.9506   -0.5081   -0.5361 C   0  0  1  0  0  0  0  0  0  0  0  0
    6.8497   -0.8840   -1.6767 C   0  0  0  0  0  0  0  0  0  0  0  0
    6.3250   -1.2043    0.7452 C   0  0  0  0  0  3  0  0  0  0  0  0
    5.2630   -0.8492    1.7876 C   0  0  0  0  0  0  0  0  0  0  0  0
    3.9178   -1.3376    1.2670 C   0  0  0  0  0  0  0  0  0  0  0  0
    3.9237   -2.8274    1.0465 C   0  0  2  0  0  0  0  0  0  0  0  0
    4.9516   -3.2792    0.0532 C   0  0  0  0  0  0  0  0  0  0  0  0
    2.5427   -3.2803    0.6858 C   0  0  0  0  0  3  0  0  0  0  0  0
    1.6186   -2.9211    1.8356 C   0  0  0  0  0  0  0  0  0  0  0  0
    0.2216   -3.3784    1.4725 C   0  0  0  0  0  0  0  0  0  0  0  0
   -0.1788   -2.6559    0.2039 C   0  0  0  0  0  0  0  0  0  0  0  0
   -0.1415   -1.1755    0.4995 C   0  0  0  0  0  3  0  0  0  0  0  0
   -0.5297   -0.3596   -0.7174 C   0  0  0  0  0  3  0  0  0  0  0  0
   -2.0575   -0.2421   -0.6859 C   0  0  0  0  0  3  0  0  0  0  0  0
   -2.6073   -1.5420   -1.1694 C   0  0  0  0  0  0  0  0  0  0  0  0
   -4.0969   -1.6037   -1.2037 C   0  0  0  0  0  0  0  0  0  0  0  0
   -4.7420   -1.3959    0.1400 C   0  0  0  0  0  0  0  0  0  0  0  0
   -4.4284   -0.0792    0.7598 C   0  0  0  0  0  0  0  0  0  0  0  0
   -4.9033    1.0621   -0.1324 C   0  0  0  0  0  0  0  0  0  0  0  0
   -6.4140    0.9713   -0.3420 C   0  0  0  0  0  3  0  0  0  0  0  0
   -6.8025    2.1354   -1.2346 C   0  0  2  0  0  0  0  0  0  0  0  0
   -6.4316    3.4493   -0.5592 C   0  0  0  0  0  0  0  0  0  0  0  0
   -8.3102    2.1421   -1.4474 C   0  0  0  0  0  3  0  0  0  0  0  0
   -9.0091    2.2777   -0.1542 C   0  0  0  0  0  0  0  0  0  0  0  0
   -9.1989    1.3407    0.5941 O   0  0  0  0  0  0  0  0  0  0  0  0
  1  2  2  0
  2  3  1  0
  2  4  1  0
  4  5  1  0
  5  6  1  0
  6  7  1  0
  7  8  1  6
  7  9  1  0
  9 10  1  0
 10 11  1  0
 11 12  1  0
 12 13  1  6
 12 14  1  0
 14 15  1  0
 15 16  1  0
 16 17  1  0
 17 18  1  0
 18 19  1  0
 19 20  1  0
 20 21  1  0
 21 22  1  0
 22 23  1  0
 23 24  1  0
 24 25  1  0
 25 26  1  0
 26 27  1  0
 27 28  1  1
 27 29  1  0
 29 30  1  0
 30 31  2  0
M  RAD  7   9   2  14   2  18   2  19   2  20   2  26   2  29   2
M  END
$$$$
