
     RDKit          3D

 16 16  0  0  0  0  0  0  0  0999 V2000
    4.7509    0.6295   -0.2607 F   0  0  0  0  0  0  0  0  0  0  0  0
    4.8545    1.8699    0.3196 C   0  0  0  0  0  0  0  0  0  0  0  0
    3.7712    2.3236    0.9588 C   0  0  0  0  0  0  0  0  0  0  0  0
    2.2424    1.3758    1.0673 S   0  0  0  0  0  0  0  0  0  0  0  0
    1.8387    0.4293   -0.1607 C   0  0  0  0  0  0  0  0  0  0  0  0
    0.6090   -0.3941   -0.1835 C   0  0  0  0  0  0  0  0  0  0  0  0
   -0.4402   -0.3037    1.2223 S   0  0  0  0  0  0  0  0  0  0  0  0
   -1.5456   -1.6610    1.4351 C   0  0  0  0  0  0  0  0  0  0  0  0
   -2.7427   -1.6823    0.8596 C   0  0  0  0  0  0  0  0  0  0  0  0
   -3.1355   -0.5120    0.0145 C   0  0  0  0  0  0  0  0  0  0  0  0
   -2.3576   -0.4866   -1.2156 N   0  0  0  0  0  0  0  0  0  0  0  0
   -1.8737   -1.7789   -1.6414 C   0  0  0  0  0  0  0  0  0  0  0  0
   -0.5751   -1.9597   -1.5998 C   0  0  0  0  0  0  0  0  0  0  0  0
    0.4134   -1.0894   -1.2057 N   0  0  0  0  0  0  0  0  0  0  0  0
   -3.0312    1.0262    0.9145 S   0  0  0  0  0  0  0  0  0  0  0  0
   -2.7783    2.2135   -0.0022 O   0  0  0  0  0  0  0  0  0  0  0  0
  1  2  1  0
  2  3  2  3
  3  4  1  0
  4  5  2  3
  5  6  1  0
  6  7  1  0
  7  8  1  0
  8  9  2  3
  9 10  1  0
 10 11  1  0
 11 12  1  0
 12 13  2  3
 13 14  1  0
 10 15  1  0
 15 16  2  0
  6 14  2  3
M  END
$$$$
