
     RDKit          3D

 23 22  0  0  0  0  0  0  0  0999 V2000
   -5.6054    1.4922   -0.0676 C   0  0  0  0  0  0  0  0  0  0  0  0
   -5.0607    0.1007   -0.2156 C   0  0  0  0  0  0  0  0  0  0  0  0
   -6.1554   -0.9467   -0.2189 C   0  0  0  0  0  0  0  0  0  0  0  0
   -4.2107   -0.0501   -1.4209 C   0  0  0  0  0  0  0  0  0  0  0  0
   -3.6201   -1.3518   -1.6813 C   0  0  0  0  0  0  0  0  0  0  0  0
   -2.6875   -2.0156   -0.8134 C   0  0  0  0  0  0  0  0  0  0  0  0
   -3.0980   -2.3341    0.5912 C   0  0  1  0  0  0  0  0  0  0  0  0
   -1.8790   -3.0975    1.2107 C   0  0  0  0  0  0  0  0  0  0  0  0
   -3.1972   -1.0572    1.4560 C   0  0  0  0  0  3  0  0  0  0  0  0
   -1.8090   -0.4782    1.5724 C   0  0  0  0  0  0  0  0  0  0  0  0
   -1.2853   -0.1747    0.1945 C   0  0  0  0  0  0  0  0  0  0  0  0
    0.1341    0.4138    0.3723 C   0  0  2  0  0  0  0  0  0  0  0  0
   -0.0113    1.6814    1.2204 C   0  0  0  0  0  0  0  0  0  0  0  0
    0.6559    0.6815   -0.9955 C   0  0  0  0  0  3  0  0  0  0  0  0
    2.0456    1.0295   -1.0844 C   0  0  0  0  0  0  0  0  0  0  0  0
    2.6430    2.1655   -0.4387 C   0  0  1  0  0  0  0  0  0  0  0  0
    2.6258    2.2758    1.0471 C   0  0  0  0  0  0  0  0  0  0  0  0
    4.0235    2.4448   -1.0258 C   0  0  0  0  0  0  0  0  0  0  0  0
    4.8717    1.2104   -0.7961 C   0  0  0  0  0  3  0  0  0  0  0  0
    4.1631    0.2199   -0.1390 O   0  0  0  0  0  0  0  0  0  0  0  0
    4.7196   -1.0211   -0.4017 C   0  0  0  0  0  0  0  0  0  0  0  0
    6.1163   -1.0803    0.0468 C   0  0  0  0  0  0  0  0  0  0  0  0
    6.6211   -0.1082    0.5692 O   0  0  0  0  0  0  0  0  0  0  0  0
  1  2  1  0
  2  3  1  0
  2  4  1  0
  4  5  1  0
  5  6  1  0
  6  7  1  0
  7  8  1  1
  7  9  1  0
  9 10  1  0
 10 11  1  0
 11 12  1  0
 12 13  1  1
 12 14  1  0
 14 15  1  0
 15 16  1  0
 16 17  1  1
 16 18  1  0
 18 19  1  0
 19 20  1  0
 20 21  1  0
 21 22  1  0
 22 23  2  0
M  RAD  3   9   2  14   2  19   2
M  END
$$$$
