
     RDKit          2D

 80 82  0  0  0  0  0  0  0  0999 V2000
    9.3107    9.0933    0.0000 C   0  0  0  0  0  0  0  0  0  0  0  0
   10.0607    7.7942    0.0000 C   0  0  0  0  0  0  0  0  0  0  0  0
   11.5607    7.7942    0.0000 C   0  0  0  0  0  0  0  0  0  0  0  0
    9.3107    6.4952    0.0000 C   0  0  0  0  0  0  0  0  0  0  0  0
   10.0607    5.1962    0.0000 C   0  0  0  0  0  0  0  0  0  0  0  0
    9.3107    3.8971    0.0000 C   0  0  0  0  0  0  0  0  0  0  0  0
   10.0607    2.5981    0.0000 C   0  0  0  0  0  0  0  0  0  0  0  0
   11.5607    2.5981    0.0000 C   0  0  0  0  0  0  0  0  0  0  0  0
    9.3107    1.2990    0.0000 C   0  0  0  0  0  3  0  0  0  0  0  0
    7.8107    1.2990    0.0000 C   0  0  0  0  0  0  0  0  0  0  0  0
    7.0607    0.0000    0.0000 C   0  0  0  0  0  0  0  0  0  0  0  0
    5.5607    0.0000    0.0000 C   0  0  0  0  0  3  0  0  0  0  0  0
    4.8107   -1.2990    0.0000 C   0  0  0  0  0  3  0  0  0  0  0  0
    5.5607   -2.5981    0.0000 C   0  0  0  0  0  2  0  0  0  0  0  0
    3.3107   -1.2990    0.0000 C   0  0  0  0  0  0  0  0  0  0  0  0
    2.5607    0.0000    0.0000 C   0  0  0  0  0  0  0  0  0  0  0  0
    1.0607    0.0000    0.0000 C   0  0  0  0  0  0  0  0  0  0  0  0
   -0.0000   -1.0607    0.0000 C   0  0  0  0  0  0  0  0  0  0  0  0
   -0.0000   -2.5607    0.0000 C   0  0  0  0  0  0  0  0  0  0  0  0
   -1.0607   -3.6213    0.0000 C   0  0  0  0  0  0  0  0  0  0  0  0
   -0.4866   -5.0071    0.0000 O   0  0  0  0  0  0  0  0  0  0  0  0
   -2.5607   -3.6213    0.0000 S   0  0  0  0  0  0  0  0  0  0  0  0
   -3.6213   -2.5607    0.0000 C   0  0  0  0  0  0  0  0  0  0  0  0
   -5.0071   -3.1347    0.0000 C   0  0  0  0  0  0  0  0  0  0  0  0
   -6.1972   -2.2215    0.0000 C   0  0  0  0  0  0  0  0  0  0  0  0
   -5.2029   -4.6219    0.0000 O   0  0  0  0  0  0  0  0  0  0  0  0
    0.0000    1.0607    0.0000 C   0  0  0  0  0  0  0  0  0  0  0  0
   -1.0607    0.0000    0.0000 C   0  0  0  0  0  0  0  0  0  0  0  0
   -2.5607    0.0000    0.0000 S   0  0  0  0  0  0  0  0  0  0  0  0
   -3.6213   -1.0607    0.0000 N   0  0  0  0  0  0  0  0  0  0  0  0
   -5.0071   -0.4866    0.0000 O   0  0  0  0  0  0  0  0  0  0  0  0
   -5.2029    1.0005    0.0000 C   0  0  0  0  0  0  0  0  0  0  0  0
   -6.5887    1.5746    0.0000 C   0  0  0  0  0  0  0  0  0  0  0  0
   -1.6347    1.3858    0.0000 C   0  0  0  0  0  0  0  0  0  0  0  0
   -3.1219    1.5816    0.0000 S   0  0  0  0  0  0  0  0  0  0  0  0
   -0.7215    2.5758    0.0000 C   0  0  0  0  0  3  0  0  0  0  0  0
   -1.2956    3.9617    0.0000 C   0  0  0  0  0  0  0  0  0  0  0  0
   -0.3824    5.1517    0.0000 C   0  0  0  0  0  0  0  0  0  0  0  0
   -0.9565    6.5375    0.0000 C   0  0  0  0  0  3  0  0  0  0  0  0
   -0.0433    7.7275    0.0000 C   0  0  0  0  0  0  0  0  0  0  0  0
   -0.6173    9.1134    0.0000 C   0  0  0  0  0  2  0  0  0  0  0  0
    1.4439    7.5318    0.0000 C   0  0  0  0  0  0  0  0  0  0  0  0
    2.3570    8.7218    0.0000 C   0  0  0  0  0  0  0  0  0  0  0  0
    1.7830   10.1076    0.0000 O   0  0  0  0  0  0  0  0  0  0  0  0
    3.8442    8.5260    0.0000 C   0  0  0  0  0  0  0  0  0  0  0  0
    4.7573    9.7160    0.0000 C   0  0  0  0  0  0  0  0  0  0  0  0
    6.2445    9.5202    0.0000 C   0  0  0  0  0  2  0  0  0  0  0  0
    4.1833   11.1018    0.0000 C   0  0  0  0  0  2  0  0  0  0  0  0
    5.0964   12.2919    0.0000 C   0  0  0  0  0  0  0  0  0  0  0  0
    4.5224   13.6777    0.0000 C   0  0  0  0  0  3  0  0  0  0  0  0
    5.4355   14.8677    0.0000 C   0  0  0  0  0  0  0  0  0  0  0  0
    4.8615   16.2535    0.0000 C   0  0  0  0  0  0  0  0  0  0  0  0
    5.7747   17.4436    0.0000 C   0  0  0  0  0  0  0  0  0  0  0  0
    5.2006   18.8294    0.0000 O   0  0  0  0  0  0  0  0  0  0  0  0
    6.1138   20.0194    0.0000 C   0  0  0  0  0  0  0  0  0  0  0  0
    5.5398   21.4052    0.0000 C   0  0  0  0  0  0  0  0  0  0  0  0
    6.4529   22.5953    0.0000 C   0  0  0  0  0  3  0  0  0  0  0  0
    5.8789   23.9811    0.0000 C   0  0  0  0  0  2  0  0  0  0  0  0
    6.7920   25.1711    0.0000 C   0  0  0  0  0  3  0  0  0  0  0  0
    6.2180   26.5569    0.0000 C   0  0  0  0  0  0  0  0  0  0  0  0
    7.1311   27.7470    0.0000 C   0  0  0  0  0  0  0  0  0  0  0  0
    6.5571   29.1328    0.0000 C   0  0  0  0  0  0  0  0  0  0  0  0
    7.4702   30.3228    0.0000 C   0  0  0  0  0  3  0  0  0  0  0  0
    6.8962   31.7086    0.0000 C   0  0  0  0  0  3  0  0  0  0  0  0
    7.8094   32.8987    0.0000 C   0  0  0  0  0  0  0  0  0  0  0  0
    7.2353   34.2845    0.0000 C   0  0  0  0  0  0  0  0  0  0  0  0
    8.1485   35.4745    0.0000 C   0  0  0  0  0  3  0  0  0  0  0  0
    7.5745   36.8603    0.0000 C   0  0  0  0  0  0  0  0  0  0  0  0
    8.4876   38.0504    0.0000 C   0  0  0  0  0  0  0  0  0  0  0  0
    7.8116   39.3894    0.0000 C   0  0  0  0  0  3  0  0  0  0  0  0
    8.4371   40.7528    0.0000 C   0  0  0  0  0  3  0  0  0  0  0  0
    9.8930   41.1139    0.0000 C   0  0  0  0  0  0  0  0  0  0  0  0
   11.0830   40.2007    0.0000 C   0  0  0  0  0  0  0  0  0  0  0  0
   11.1110   38.7010    0.0000 C   0  0  0  0  0  0  0  0  0  0  0  0
   12.4744   38.0756    0.0000 C   0  0  0  0  0  0  0  0  0  0  0  0
    9.9560   37.7440    0.0000 C   0  0  0  0  0  0  0  0  0  0  0  0
   10.3170   36.2881    0.0000 C   0  0  0  0  0  3  0  0  0  0  0  0
   11.7584   35.8728    0.0000 O   0  0  0  0  0  0  0  0  0  0  0  0
   12.1195   34.4170    0.0000 C   0  0  0  0  0  0  0  0  0  0  0  0
   13.5609   34.0017    0.0000 C   0  0  0  0  0  0  0  0  0  0  0  0
  1  2  1  0
  2  3  1  0
  2  4  1  0
  4  5  1  0
  5  6  1  0
  6  7  1  0
  7  8  1  1
  7  9  1  0
  9 10  1  0
 10 11  1  0
 11 12  1  0
 12 13  1  0
 13 14  1  0
 13 15  1  0
 15 16  1  0
 17 16  1  6
 17 18  1  0
 18 19  1  0
 19 20  1  0
 20 21  1  0
 20 22  1  0
 22 23  1  0
 23 24  1  0
 24 25  1  1
 24 26  1  0
 17 27  1  0
 27 28  1  0
 28 29  1  0
 29 30  1  0
 30 31  1  0
 31 32  1  0
 32 33  1  0
 28 34  1  0
 34 35  1  0
 34 36  1  0
 36 37  1  0
 37 38  1  0
 38 39  1  0
 39 40  1  0
 40 41  1  6
 40 42  1  0
 42 43  1  0
 43 44  1  6
 43 45  1  0
 45 46  1  0
 46 47  1  1
 46 48  1  0
 48 49  1  0
 49 50  1  0
 50 51  1  0
 51 52  1  0
 52 53  1  0
 53 54  1  0
 54 55  1  0
 55 56  1  0
 56 57  1  0
 57 58  1  0
 58 59  1  0
 59 60  1  0
 60 61  1  0
 61 62  1  0
 62 63  1  0
 63 64  1  0
 64 65  1  0
 65 66  1  0
 66 67  1  0
 67 68  1  0
 68 69  1  0
 69 70  1  0
 70 71  1  0
 71 72  1  0
 72 73  1  0
 73 74  1  0
 74 75  1  6
 74 76  1  0
 76 77  1  1
 77 78  1  0
 78 79  1  0
 79 80  1  0
 28 18  1  0
 30 23  1  0
 76 69  1  0
M  RAD  8   9   2  12   2  13   2  14   3  36   2  39   2  41   3  47   3
M  RAD  8  48   3  50   2  57   2  58   3  59   2  63   2  64   2  67   2
M  RAD  3  70   2  71   2  77   2
M  END
$$$$
