
     RDKit          2D

 83 83  0  0  0  0  0  0  0  0999 V2000
    5.2850   -5.1755    0.0000 C   0  0  0  0  0  0  0  0  0  0  0  0
    5.3971   -3.6797    0.0000 C   0  0  0  0  0  0  0  0  0  0  0  0
    6.2360   -3.3955    0.0000 C   0  0  0  0  0  0  0  0  0  0  0  0
    4.1577   -2.8347    0.0000 C   0  0  0  0  0  0  0  0  0  0  0  0
    3.1375   -3.9343    0.0000 C   0  0  0  0  0  0  0  0  0  0  0  0
    1.8384   -4.6843    0.0000 C   0  0  0  0  0  0  0  0  0  0  0  0
    0.3761   -5.0181    0.0000 C   0  0  0  0  0  0  0  0  0  0  0  0
    0.4881   -6.5139    0.0000 C   0  0  0  0  0  0  0  0  0  0  0  0
   -1.1198   -4.9060    0.0000 C   0  0  0  0  0  3  0  0  0  0  0  0
   -2.5161   -4.3580    0.0000 C   0  0  0  0  0  0  0  0  0  0  0  0
   -3.6888   -3.4227    0.0000 C   0  0  0  0  0  0  0  0  0  0  0  0
   -4.5338   -2.1834    0.0000 C   0  0  0  0  0  0  0  0  0  0  0  0
   -5.8852   -2.8342    0.0000 C   0  0  0  0  0  0  0  0  0  0  0  0
   -4.9759   -0.7500    0.0000 C   0  0  0  0  0  3  0  0  0  0  0  0
   -4.9759    0.7500    0.0000 C   0  0  0  0  0  0  0  0  0  0  0  0
   -4.5338    2.1834    0.0000 C   0  0  0  0  0  0  0  0  0  0  0  0
   -5.3159    3.4633    0.0000 N   0  0  0  0  0  1  0  0  0  0  0  0
   -6.0222    1.9968    0.0000 F   0  0  0  0  0  0  0  0  0  0  0  0
   -3.6888    3.4227    0.0000 C   0  0  0  0  0  0  0  0  0  0  0  0
   -2.5161    4.3580    0.0000 O   0  0  0  0  0  0  0  0  0  0  0  0
   -1.1198    4.9060    0.0000 C   0  0  0  0  0  0  0  0  0  0  0  0
    0.3761    5.0181    0.0000 C   0  0  0  0  0  0  0  0  0  0  0  0
    1.8384    4.6843    0.0000 C   0  0  0  0  0  0  0  0  0  0  0  0
    2.3865    6.0806    0.0000 O   0  0  0  0  0  0  0  0  0  0  0  0
    3.1375    3.9343    0.0000 O   0  0  0  0  0  0  0  0  0  0  0  0
    4.1577    2.8347    0.0000 C   0  0  0  0  0  0  0  0  0  0  0  0
    4.8086    1.4832    0.0000 C   0  0  0  0  0  0  0  0  0  0  0  0
    5.0321    0.0000    0.0000 C   0  0  0  0  0  0  0  0  0  0  0  0
    6.5321    0.0000    0.0000 C   0  0  0  0  0  0  0  0  0  0  0  0
    4.8086   -1.4832    0.0000 C   0  0  0  0  0  0  0  0  0  0  0  0
    6.2419   -1.9254    0.0000 C   0  0  0  0  0  0  0  0  0  0  0  0
    6.5428   -2.7584    0.0000 C   0  0  0  0  0  0  0  0  0  0  0  0
    7.3415   -0.9051    0.0000 C   0  0  0  0  0  0  0  0  0  0  0  0
    8.7749   -1.3473    0.0000 C   0  0  0  0  0  0  0  0  0  0  0  0
    9.8744   -0.3270    0.0000 O   0  0  0  0  0  1  0  0  0  0  0  0
    9.1086   -2.8096    0.0000 O   0  0  0  0  0  0  0  0  0  0  0  0
   10.5420   -3.2518    0.0000 C   0  0  0  0  0  3  0  0  0  0  0  0
   10.8758   -4.7142    0.0000 C   0  0  0  0  0  3  0  0  0  0  0  0
    9.7762   -5.7344    0.0000 O   0  0  0  0  0  1  0  0  0  0  0  0
   12.3091   -5.1563    0.0000 C   0  0  0  0  0  0  0  0  0  0  0  0
   12.6429   -6.6187    0.0000 C   0  0  0  0  0  0  0  0  0  0  0  0
   14.0763   -7.0608    0.0000 C   0  0  0  0  0  0  0  0  0  0  0  0
   15.1759   -6.0406    0.0000 O   0  0  0  0  0  0  0  0  0  0  0  0
   14.4101   -8.5232    0.0000 C   0  0  0  0  0  0  0  0  0  0  0  0
   15.8434   -8.9654    0.0000 C   0  0  0  0  0  3  0  0  0  0  0  0
   16.1772  -10.4277    0.0000 C   0  0  0  0  0  0  0  0  0  0  0  0
   15.0776  -11.4480    0.0000 O   0  0  0  0  0  1  0  0  0  0  0  0
   17.6106  -10.8699    0.0000 C   0  0  0  0  0  0  0  0  0  0  0  0
   17.9443  -12.3323    0.0000 C   0  0  0  0  0  0  0  0  0  0  0  0
   19.3777  -12.7744    0.0000 C   0  0  0  0  0  0  0  0  0  0  0  0
   19.7115  -14.2368    0.0000 C   0  0  0  0  0  0  0  0  0  0  0  0
   21.1448  -14.6789    0.0000 C   0  0  0  0  0  0  0  0  0  0  0  0
   18.6119  -15.2571    0.0000 C   0  0  0  0  0  0  0  0  0  0  0  0
   18.9457  -16.7194    0.0000 C   0  0  0  0  0  3  0  0  0  0  0  0
   17.8461  -17.7397    0.0000 O   0  0  0  0  0  1  0  0  0  0  0  0
   13.3105   -9.5435    0.0000 C   0  0  0  0  0  0  0  0  0  0  0  0
   13.6443  -11.0059    0.0000 C   0  0  0  0  0  0  0  0  0  0  0  0
   12.5447  -12.0261    0.0000 C   0  0  0  0  0  0  0  0  0  0  0  0
   12.8785  -13.4885    0.0000 C   0  0  0  0  0  0  0  0  0  0  0  0
   11.7789  -14.5088    0.0000 C   0  0  0  0  0  0  0  0  0  0  0  0
   10.3455  -14.0666    0.0000 O   0  0  0  0  0  1  0  0  0  0  0  0
   12.1127  -15.9712    0.0000 C   0  0  0  0  0  3  0  0  0  0  0  0
   11.0131  -16.9914    0.0000 C   0  0  0  0  0  0  0  0  0  0  0  0
   11.3469  -18.4538    0.0000 C   0  0  0  0  0  0  0  0  0  0  0  0
   10.2473  -19.4741    0.0000 C   0  0  0  0  0  0  0  0  0  0  0  0
   12.7802  -18.8960    0.0000 C   0  0  0  0  0  0  0  0  0  0  0  0
   13.1140  -20.3583    0.0000 C   0  0  0  0  0  0  0  0  0  0  0  0
   14.5474  -20.8005    0.0000 C   0  0  0  0  0  0  0  0  0  0  0  0
   14.8812  -22.2629    0.0000 C   0  0  0  0  0  0  0  0  0  0  0  0
   16.3145  -22.7050    0.0000 C   0  0  0  0  0  0  0  0  0  0  0  0
   13.7816  -23.2831    0.0000 C   0  0  0  0  0  0  0  0  0  0  0  0
   14.1154  -24.7455    0.0000 C   0  0  0  0  0  0  0  0  0  0  0  0
   13.0158  -25.7658    0.0000 C   0  0  0  0  0  0  0  0  0  0  0  0
   13.3496  -27.2282    0.0000 C   0  0  0  0  0  3  0  0  0  0  0  0
   12.2500  -28.2484    0.0000 O   0  0  0  0  0  0  0  0  0  0  0  0
   12.5838  -29.7108    0.0000 C   0  0  0  0  0  0  0  0  0  0  0  0
   11.4842  -30.7311    0.0000 C   0  0  0  0  0  0  0  0  0  0  0  0
   11.8180  -32.1935    0.0000 C   0  0  0  0  0  3  0  0  0  0  0  0
   10.7184  -33.2137    0.0000 C   0  0  0  0  0  0  0  0  0  0  0  0
   11.0522  -34.6761    0.0000 C   0  0  0  0  0  0  0  0  0  0  0  0
    9.9526  -35.6964    0.0000 O   0  0  0  0  0  1  0  0  0  0  0  0
   12.4855  -35.1183    0.0000 O   0  0  0  0  0  0  0  0  0  0  0  0
   12.8193  -36.5807    0.0000 C   0  0  0  0  0  0  0  0  0  0  0  0
  1  2  1  0
  2  3  1  0
  2  4  1  0
  4  5  1  0
  5  6  1  0
  6  7  1  0
  7  8  1  1
  7  9  1  0
  9 10  1  0
 10 11  1  0
 11 12  1  0
 12 13  1  6
 12 14  1  0
 14 15  1  0
 15 16  1  0
 16 17  1  0
 16 18  1  0
 16 19  1  0
 19 20  1  0
 20 21  1  0
 21 22  1  0
 22 23  1  0
 23 24  1  0
 23 25  1  0
 25 26  1  0
 26 27  1  0
 27 28  1  0
 28 29  1  0
 28 30  1  0
 30 31  1  6
 31 32  1  0
 31 33  1  0
 33 34  1  0
 34 35  1  1
 34 36  1  0
 36 37  1  0
 37 38  1  0
 38 39  1  0
 38 40  1  0
 40 41  1  0
 41 42  1  0
 42 43  1  1
 42 44  1  0
 44 45  1  1
 45 46  1  0
 46 47  1  0
 46 48  1  0
 48 49  1  0
 49 50  1  0
 50 51  1  0
 51 52  1  0
 51 53  1  0
 53 54  1  0
 54 55  1  0
 44 56  1  0
 56 57  1  0
 57 58  1  0
 58 59  1  0
 59 60  1  0
 60 61  1  6
 60 62  1  0
 62 63  1  0
 63 64  1  0
 64 65  1  0
 64 66  1  0
 66 67  1  0
 67 68  1  0
 68 69  1  0
 69 70  1  6
 69 71  1  0
 71 72  1  0
 72 73  1  0
 73 74  1  0
 74 75  1  0
 75 76  1  0
 76 77  1  0
 77 78  1  0
 78 79  1  0
 79 80  1  0
 80 81  1  6
 80 82  1  0
 82 83  1  0
 30  4  1  0
M  RAD  8   9   2  14   2  17   2  37   2  38   2  45   2  54   2  62   2
M  CHG  7  17   1  35  -1  39  -1  47  -1  55  -1  61  -1  81  -1
M  RAD  2  74   2  78   2
M  END
$$$$
