
     RDKit          3D

 31 33  0  0  0  0  0  0  0  0999 V2000
    1.3647   -2.9023    0.3344 O   0  0  0  0  0  0  0  0  0  0  0  0
    1.6678   -1.6898    0.2992 C   0  0  0  0  0  0  0  0  0  0  0  0
    3.0054   -1.3152    0.4487 N   0  0  0  0  0  0  0  0  0  0  0  0
    4.1331   -2.1985    0.6339 C   0  0  0  0  0  0  0  0  0  0  0  0
    5.3175   -1.3751    0.2830 C   0  0  0  0  0  0  0  0  0  0  0  0
    6.4976   -1.3392    0.9115 C   0  0  0  0  0  0  0  0  0  0  0  0
    7.5929   -0.5698    0.6023 C   0  0  0  0  0  0  0  0  0  0  0  0
    7.4600    0.3169   -0.5517 C   0  0  0  0  0  0  0  0  0  0  0  0
    8.5221    1.0922   -0.8714 F   0  0  0  0  0  0  0  0  0  0  0  0
    6.2882    0.2548   -1.1441 C   0  0  0  0  0  0  0  0  0  0  0  0
    5.1956   -0.5001   -0.8500 C   0  0  0  0  0  0  0  0  0  0  0  0
    0.6112   -0.6650    0.1022 C   0  0  0  0  0  0  0  0  0  0  0  0
    0.9769    0.5785    0.0698 C   0  0  0  0  0  0  0  0  0  0  0  0
    0.2509    1.7777   -0.0975 C   0  0  0  0  0  0  0  0  0  0  0  0
    0.9326    2.9900   -0.1200 C   0  0  0  0  0  0  0  0  0  0  0  0
    0.2547    4.1736   -0.2874 C   0  0  0  0  0  0  0  0  0  0  0  0
   -1.1219    4.2294   -0.4421 C   0  0  0  0  0  0  0  0  0  0  0  0
   -1.8611    5.4762   -0.6368 C   0  0  0  0  0  0  0  0  0  0  0  0
   -1.7898    3.0274   -0.4182 C   0  0  0  0  0  0  0  0  0  0  0  0
   -1.1079    1.8274   -0.2468 C   0  0  0  0  0  0  0  0  0  0  0  0
   -1.8576    0.5810   -0.2167 C   0  0  0  0  0  0  0  0  0  0  0  0
   -2.5049   -0.4893   -0.1690 C   0  0  0  0  0  0  0  0  0  0  0  0
   -3.2205   -1.6382   -0.1333 O   0  0  0  0  0  0  0  0  0  0  0  0
   -4.5660   -1.6637    0.1937 C   0  0  0  0  0  0  0  0  0  0  0  0
   -5.2074   -2.5862    0.8440 C   0  0  0  0  0  0  0  0  0  0  0  0
   -4.6708   -3.7098    1.3272 F   0  0  0  0  0  0  0  0  0  0  0  0
   -6.6189   -2.2167    0.9831 C   0  0  0  0  0  0  0  0  0  0  0  0
   -6.8147   -1.0545    0.4037 C   0  0  0  0  0  0  0  0  0  0  0  0
   -7.9992   -0.4150    0.3445 F   0  0  0  0  0  0  0  0  0  0  0  0
   -5.5258   -0.5987   -0.1588 C   0  0  0  0  0  0  0  0  0  0  0  0
   -5.2047    0.6019    0.4953 O   0  0  0  0  0  0  0  0  0  0  0  0
  1  2  2  0
  2  3  1  0
  3  4  1  0
  4  5  1  0
  5  6  2  0
  6  7  1  0
  7  8  2  0
  8  9  1  0
  8 10  1  0
 10 11  2  0
  2 12  1  0
 12 13  2  3
 13 14  1  0
 14 15  2  0
 15 16  1  0
 16 17  2  0
 17 18  1  0
 17 19  1  0
 19 20  2  0
 20 21  1  0
 21 22  3  0
 22 23  1  0
 23 24  1  0
 24 25  2  0
 25 26  1  0
 25 27  1  0
 27 28  2  0
 28 29  1  0
 28 30  1  0
 30 31  1  0
 11  5  1  0
 20 14  1  0
 30 24  1  0
M  END
$$$$
