
     RDKit          3D

 28 27  0  0  0  0  0  0  0  0999 V2000
   -4.9496   -4.3573   -0.7426 N   0  0  0  0  0  0  0  0  0  0  0  0
   -5.2634   -3.4934    0.1688 C   0  0  0  0  0  0  0  0  0  0  0  0
   -6.7051   -3.4565    0.5844 C   0  0  0  0  0  0  0  0  0  0  0  0
   -4.3003   -2.6266    0.7463 N   0  0  0  0  0  0  0  0  0  0  0  0
   -2.9332   -3.0148    0.7251 C   0  0  0  0  0  0  0  0  0  0  0  0
   -1.9169   -2.1690    1.2987 C   0  0  0  0  0  0  0  0  0  0  0  0
   -1.5984   -0.8294    0.8513 C   0  0  0  0  0  0  0  0  0  0  0  0
   -2.6445    0.1720    0.9099 C   0  0  2  0  0  0  0  0  0  0  0  0
   -3.8594   -0.0863    0.0924 C   0  0  0  0  0  0  0  0  0  0  0  0
   -2.2113    1.5918    0.7456 C   0  0  1  0  0  0  0  0  0  0  0  0
   -3.4408    2.4694    0.8374 C   0  0  0  0  0  0  0  0  0  0  0  0
   -2.9794    3.9070    0.6681 C   0  0  2  0  0  0  0  0  0  0  0  0
   -4.1002    4.7080    0.7516 O   0  0  0  0  0  0  0  0  0  0  0  0
   -2.3538    4.0022   -0.6760 C   0  0  0  0  0  0  0  0  0  0  0  0
   -2.8755    4.7343   -1.4974 O   0  0  0  0  0  0  0  0  0  0  0  0
   -1.2570    2.0438    1.7770 C   0  0  0  0  0  0  0  0  0  0  0  0
    0.0268    1.9718    1.4622 C   0  0  0  0  0  0  0  0  0  0  0  0
    1.2841    1.9398    1.2786 N   0  0  0  0  0  0  0  0  0  0  0  0
    1.7407    1.6734   -0.0745 C   0  0  0  0  0  3  0  0  0  0  0  0
    3.0224    0.9019    0.0663 C   0  0  0  0  0  0  0  0  0  0  0  0
    3.7636    0.6019   -0.9874 C   0  0  0  0  0  0  0  0  0  0  0  0
    4.9889   -0.1509   -0.7347 C   0  0  0  0  0  0  0  0  0  0  0  0
    5.7257   -0.4454   -1.8102 C   0  0  0  0  0  0  0  0  0  0  0  0
    6.9697   -1.1880   -1.7229 C   0  0  0  0  0  0  0  0  0  0  0  0
    7.3571   -1.5669   -0.5487 N   0  0  0  0  0  0  0  0  0  0  0  0
    6.6130   -1.2856    0.6630 C   0  0  0  0  0  0  0  0  0  0  0  0
    5.8947   -2.5064    1.1226 C   0  0  0  0  0  0  0  0  0  0  0  0
    6.0020   -3.5410    0.4749 O   0  0  0  0  0  0  0  0  0  0  0  0
  1  2  2  0
  2  3  1  0
  2  4  1  0
  4  5  1  0
  5  6  1  0
  6  7  1  0
  7  8  1  0
  8  9  1  6
  8 10  1  0
 10 11  1  1
 11 12  1  0
 12 13  1  6
 12 14  1  0
 14 15  2  0
 10 16  1  0
 16 17  2  0
 17 18  2  0
 18 19  1  0
 19 20  1  0
 20 21  2  3
 21 22  1  0
 22 23  2  3
 23 24  1  0
 24 25  2  3
 25 26  1  0
 26 27  1  0
 27 28  2  0
M  RAD  1  19   2
M  END
$$$$
