
     RDKit          3D

 10 10  0  0  0  0  0  0  0  0999 V2000
    2.7551   -0.4407   -0.3878 C   0  0  0  0  0  0  0  0  0  0  0  0
    1.2990   -0.2422   -0.2480 C   0  0  1  0  0  0  0  0  0  0  0  0
    0.7552   -0.7082    1.1105 C   0  0  0  0  0  0  0  0  0  0  0  0
   -0.7310   -0.9474    0.8004 C   0  0  2  0  0  0  0  0  0  0  0  0
   -0.7217   -2.1144   -0.0015 O   0  0  0  0  0  0  0  0  0  0  0  0
   -1.3033    0.1470   -0.0337 C   0  0  2  0  0  0  0  0  0  0  0  0
   -1.8877   -0.3368   -1.2161 O   0  0  0  0  0  0  0  0  0  0  0  0
   -0.4227    1.2928   -0.3042 C   0  0  1  0  0  0  0  0  0  0  0  0
   -0.6528    2.2843    0.6651 O   0  0  0  0  0  0  0  0  0  0  0  0
    0.9099    1.0656   -0.3846 O   0  0  0  0  0  0  0  0  0  0  0  0
  2  1  1  1
  2  3  1  0
  3  4  1  0
  4  5  1  6
  4  6  1  0
  6  7  1  6
  6  8  1  0
  8  9  1  1
  8 10  1  0
 10  2  1  0
M  END
$$$$
