
     RDKit          3D

 17 18  0  0  0  0  0  0  0  0999 V2000
   -1.8816   -1.4170    1.8181 C   0  0  0  0  0  0  0  0  0  0  0  0
   -2.1647   -1.2778    0.3582 C   0  0  1  0  0  0  0  0  0  0  0  0
   -2.9277   -0.0434    0.0127 C   0  0  0  0  0  0  0  0  0  0  0  0
   -2.0919    1.2268    0.2198 C   0  0  1  0  0  0  0  0  0  0  0  0
   -2.2715    1.7700    1.4602 O   0  0  0  0  0  0  0  0  0  0  0  0
   -0.6811    0.8789   -0.1247 C   0  0  2  0  0  0  0  0  0  0  0  0
    0.1631    1.9236   -0.2966 O   0  0  0  0  0  0  0  0  0  0  0  0
   -0.7133   -0.1358   -1.2086 C   0  0  1  0  0  0  0  0  0  0  0  0
    0.3230   -0.1392   -2.0762 O   0  0  0  0  0  0  0  0  0  0  0  0
   -0.9308   -1.4786   -0.5045 C   0  0  1  0  0  0  0  0  0  0  0  0
    0.1985   -1.5922    0.4323 N   0  0  0  0  0  0  0  0  0  0  0  0
    1.3812   -2.0742   -0.2048 C   0  0  0  0  0  3  0  0  0  0  0  0
    2.4948   -1.0873   -0.2962 C   0  0  0  0  0  0  0  0  0  0  0  0
    2.2665    0.1649    0.5111 C   0  0  0  0  0  3  0  0  0  0  0  0
    3.3422    0.3242    1.4094 O   0  0  0  0  0  0  0  0  0  0  0  0
    2.3362    1.3442   -0.4378 C   0  0  0  0  0  3  0  0  0  0  0  0
    1.1571    1.6129   -1.0724 O   0  0  0  0  0  0  0  0  0  0  0  0
  2  1  1  1
  2  3  1  0
  3  4  1  0
  4  5  1  1
  4  6  1  0
  6  7  1  6
  6  8  1  0
  8  9  1  1
  8 10  1  0
 10 11  1  1
 11 12  1  0
 12 13  1  0
 13 14  1  0
 14 15  1  0
 14 16  1  0
 16 17  1  0
 10  2  1  0
 17  7  1  0
M  RAD  3  12   2  14   2  16   2
M  END
$$$$
