
     RDKit          3D

 28 27  0  0  0  0  0  0  0  0999 V2000
    8.6869   -1.2820    0.0958 C   0  0  0  0  0  0  0  0  0  0  0  0
    7.6041   -1.1672   -0.9638 C   0  0  0  0  0  0  0  0  0  0  0  0
    6.8441    0.1009   -0.7251 C   0  0  2  0  0  0  0  0  0  0  0  0
    7.6830    1.3399   -0.7942 C   0  0  0  0  0  0  0  0  0  0  0  0
    6.0127    0.0303    0.4945 C   0  0  0  0  0  0  0  0  0  0  0  0
    6.1883    0.8229    1.4411 O   0  0  0  0  0  0  0  0  0  0  0  0
    4.9987   -0.9619    0.5794 N   0  0  0  0  0  0  0  0  0  0  0  0
    4.1985   -1.0230    1.7644 C   0  0  0  0  0  3  0  0  0  0  0  0
    2.7464   -0.8234    1.4255 C   0  0  0  0  0  0  0  0  0  0  0  0
    2.5856   -0.6232   -0.0530 C   0  0  2  0  0  0  0  0  0  0  0  0
    3.3726    0.6100   -0.5154 C   0  0  0  0  0  0  0  0  0  0  0  0
    1.1578   -0.3470   -0.3996 C   0  0  0  0  0  0  0  0  0  0  0  0
    0.2804   -0.3231    0.5702 C   0  0  0  0  0  0  0  0  0  0  0  0
   -1.1297   -0.0593    0.3030 C   0  0  0  0  0  0  0  0  0  0  0  0
   -2.0391   -0.0286    1.2583 C   0  0  0  0  0  0  0  0  0  0  0  0
   -3.4399    0.2464    0.8888 C   0  0  2  0  0  0  0  0  0  0  0  0
   -4.4020   -0.7697    1.4041 C   0  0  0  0  0  0  0  0  0  0  0  0
   -3.5473    0.4471   -0.5825 C   0  0  2  0  0  0  0  0  0  0  0  0
   -3.1034   -0.7477   -1.3958 C   0  0  0  0  0  0  0  0  0  0  0  0
   -3.9151   -1.9731   -1.0927 C   0  0  0  0  0  0  0  0  0  0  0  0
   -5.3902   -1.7580   -1.3933 C   0  0  0  0  0  3  0  0  0  0  0  0
   -6.1479   -3.0267   -1.0667 C   0  0  0  0  0  0  0  0  0  0  0  0
   -7.6227   -2.7802   -1.3787 C   0  0  0  0  0  2  0  0  0  0  0  0
   -2.7932    1.6933   -0.9995 C   0  0  0  0  0  0  0  0  0  0  0  0
   -3.3695    2.7834   -0.3185 O   0  0  0  0  0  0  0  0  0  0  0  0
   -4.7201    3.0636   -0.5276 C   0  0  0  0  0  0  0  0  0  0  0  0
   -5.3419    4.1990    0.1748 C   0  0  0  0  0  2  0  0  0  0  0  0
   -5.3970    2.3575   -1.3043 O   0  0  0  0  0  0  0  0  0  0  0  0
  1  2  1  0
  2  3  1  0
  3  4  1  1
  3  5  1  0
  5  6  2  0
  5  7  1  0
  7  8  1  0
  8  9  1  0
  9 10  1  0
 10 11  1  1
 10 12  1  0
 12 13  2  3
 13 14  1  0
 14 15  2  3
 15 16  1  0
 16 17  1  6
 16 18  1  0
 18 19  1  6
 19 20  1  0
 20 21  1  0
 21 22  1  0
 22 23  1  0
 18 24  1  0
 24 25  1  0
 25 26  1  0
 26 27  1  0
 26 28  2  0
M  RAD  4   8   2  21   2  23   3  27   3
M  END
$$$$
