
     RDKit          3D

 53 56  0  0  0  0  0  0  0  0999 V2000
   -4.2473   -0.4805   -1.5480 C   0  0  0  0  0  0  0  0  0  0  0  0
   -5.1306    0.5404   -1.8561 O   0  0  0  0  0  0  0  0  0  0  0  0
   -6.4178    0.0276   -1.8944 C   0  0  0  0  0  3  0  0  0  0  0  0
   -7.1355    0.2738   -0.7465 O   0  0  0  0  0  0  0  0  0  0  0  0
   -7.1572   -0.8167    0.1231 C   0  0  2  0  0  0  0  0  0  0  0  0
   -8.5417   -1.1255    0.5997 C   0  0  0  0  0  0  0  0  0  0  0  0
   -6.2285   -0.4482    1.2833 C   0  0  0  0  0  3  0  0  0  0  0  0
   -5.0511    0.2751    0.6660 C   0  0  1  0  0  0  0  0  0  0  0  0
   -4.2321    1.0248    1.6743 C   0  0  0  0  0  3  0  0  0  0  0  0
   -4.2974    2.5103    1.5213 C   0  0  0  0  0  0  0  0  0  0  0  0
   -2.9406    3.1350    1.2337 C   0  0  2  0  0  0  0  0  0  0  0  0
   -3.1714    4.6251    1.2247 C   0  0  0  0  0  0  0  0  0  0  0  0
   -4.1894    5.0413    0.6911 O   0  0  0  0  0  0  0  0  0  0  0  0
   -2.4144    2.7612   -0.1133 C   0  0  1  0  0  0  0  0  0  0  0  0
   -2.6499    3.8026   -1.1630 C   0  0  0  0  0  0  0  0  0  0  0  0
   -0.9738    2.2863   -0.0737 C   0  0  2  0  0  0  0  0  0  0  0  0
   -0.1281    3.5222    0.2439 C   0  0  0  0  0  0  0  0  0  0  0  0
   -0.3050    4.4897   -0.7443 O   0  0  0  0  0  0  0  0  0  0  0  0
   -0.6499    1.7488   -1.4373 C   0  0  0  0  0  3  0  0  0  0  0  0
    0.1145    0.4822   -1.4430 C   0  0  2  0  0  0  0  0  0  0  0  0
   -0.6700   -0.7379   -1.7983 C   0  0  0  0  0  0  0  0  0  0  0  0
   -1.9432   -0.7713   -1.2961 O   0  0  0  0  0  0  0  0  0  0  0  0
   -2.8619   -0.0232   -2.0243 C   0  0  0  0  0  3  0  0  0  0  0  0
    1.0742    0.2900   -0.3348 C   0  0  2  0  0  0  0  0  0  0  0  0
    1.7554   -1.0521   -0.5102 C   0  0  0  0  0  3  0  0  0  0  0  0
    2.5065   -1.1510   -1.8109 C   0  0  0  0  0  3  0  0  0  0  0  0
    3.5180   -0.0464   -1.9655 C   0  0  0  0  0  0  0  0  0  0  0  0
    4.7212   -0.5008   -1.4182 O   0  0  0  0  0  0  0  0  0  0  0  0
    4.5157   -0.8016   -0.0670 C   0  0  0  0  0  3  0  0  0  0  0  0
    5.4520   -1.8859    0.4137 C   0  0  0  0  0  0  0  0  0  0  0  0
    6.2959   -2.3071   -0.6567 O   0  0  0  0  0  0  0  0  0  0  0  0
    7.1369   -1.4130   -1.2804 C   0  0  0  0  0  0  0  0  0  0  0  0
    7.5586   -0.3005   -0.6791 C   0  0  0  0  0  0  0  0  0  0  0  0
    8.4590    0.6241   -1.3917 C   0  0  0  0  0  3  0  0  0  0  0  0
    9.8203    0.5532   -0.7157 C   0  0  0  0  0  3  0  0  0  0  0  0
   10.6970   -0.0739   -1.6153 O   0  0  0  0  0  0  0  0  0  0  0  0
   11.8157   -0.5684   -0.9560 C   0  0  0  0  0  3  0  0  0  0  0  0
   12.2462    0.3982   -0.0555 O   0  0  0  0  0  0  0  0  0  0  0  0
    0.4906    0.3388    1.0392 C   0  0  1  0  0  0  0  0  0  0  0  0
   -0.4669   -0.5971    1.3006 O   0  0  0  0  0  0  0  0  0  0  0  0
   -1.1525   -0.1792    2.4653 C   0  0  0  0  0  0  0  0  0  0  0  0
   -1.5049   -1.3510    3.3478 C   0  0  0  0  0  3  0  0  0  0  0  0
   -1.9876   -2.4693    2.4325 C   0  0  0  0  0  3  0  0  0  0  0  0
   -0.8704   -3.1932    1.9882 O   0  0  0  0  0  0  0  0  0  0  0  0
    0.2614   -2.8772    2.7743 C   0  0  0  0  0  3  0  0  0  0  0  0
    1.1003   -2.1305    1.9473 O   0  0  0  0  0  0  0  0  0  0  0  0
    1.7829   -1.1386    2.6040 C   0  0  2  0  0  0  0  0  0  0  0  0
    1.1268   -0.1555    3.4911 C   0  0  0  0  0  0  0  0  0  0  0  0
    1.5804    0.2266    2.0764 C   0  0  2  0  0  0  0  0  0  0  0  0
   -4.2136   -0.7548   -0.0593 C   0  0  1  0  0  0  0  0  0  0  0  0
   -4.6879   -2.1657    0.2494 C   0  0  0  0  0  0  0  0  0  0  0  0
   -3.8046   -3.1306   -0.4334 C   0  0  0  0  0  0  0  0  0  0  0  0
   -4.0040   -4.3305   -0.3218 O   0  0  0  0  0  0  0  0  0  0  0  0
  1  2  1  0
  2  3  1  0
  3  4  1  0
  4  5  1  0
  5  6  1  1
  5  7  1  0
  8  7  1  1
  8  9  1  0
  9 10  1  0
 10 11  1  0
 11 12  1  6
 12 13  2  0
 11 14  1  0
 14 15  1  6
 14 16  1  0
 16 17  1  6
 17 18  1  0
 16 19  1  0
 20 19  1  1
 20 21  1  0
 21 22  1  0
 22 23  1  0
 20 24  1  0
 24 25  1  6
 25 26  1  0
 26 27  1  0
 27 28  1  0
 28 29  1  0
 29 30  1  0
 30 31  1  0
 31 32  1  0
 32 33  2  3
 33 34  1  0
 34 35  1  0
 35 36  1  0
 36 37  1  0
 37 38  1  0
 24 39  1  0
 39 40  1  6
 40 41  1  0
 41 42  1  0
 42 43  1  0
 43 44  1  0
 44 45  1  0
 45 46  1  0
 46 47  1  0
 47 48  1  1
 47 49  1  0
  8 50  1  0
 50 51  1  6
 51 52  1  0
 52 53  2  0
 23  1  1  0
 50  1  1  0
 49 39  1  0
 49 48  1  1
M  RAD  8   3   2   7   2   9   2  19   2  23   2  25   2  26   2  29   2
M  RAD  6  34   2  35   2  37   2  42   2  43   2  45   2
M  END
$$$$
