
     RDKit          3D

 28 28  0  0  0  0  0  0  0  0999 V2000
   -2.9417    1.7036    2.5248 C   0  0  0  0  0  0  0  0  0  0  0  0
   -3.3467    0.2765    2.2812 C   0  0  1  0  0  0  0  0  0  0  0  0
   -4.5897   -0.0960    3.0657 C   0  0  0  0  0  0  0  0  0  0  0  0
   -5.4740   -1.0262    2.2556 C   0  0  2  0  0  0  0  0  0  0  0  0
   -4.6477   -2.0470    1.7619 O   0  0  0  0  0  0  0  0  0  0  0  0
   -6.0398   -0.3014    1.0440 C   0  0  2  0  0  0  0  0  0  0  0  0
   -6.4138   -1.1797    0.0429 O   0  0  0  0  0  0  0  0  0  0  0  0
   -4.9665    0.6096    0.4825 C   0  0  1  0  0  0  0  0  0  0  0  0
   -5.0520    1.8968    0.9949 O   0  0  0  0  0  0  0  0  0  0  0  0
   -3.6210   -0.0390    0.8046 C   0  0  1  0  0  0  0  0  0  0  0  0
   -2.6774    0.4149   -0.0603 N   0  0  0  0  0  0  0  0  0  0  0  0
   -2.8062   -0.2224   -1.3878 C   0  0  0  0  0  3  0  0  0  0  0  0
   -1.5689   -1.2162   -1.1823 C   0  0  0  0  0  0  0  0  0  0  0  0
   -0.3619   -0.2154   -1.6788 C   0  0  1  0  0  0  0  0  0  0  0  0
   -0.4268    0.7921   -0.5640 O   0  0  0  0  0  0  0  0  0  0  0  0
    0.8050   -1.0559   -1.1051 C   0  0  0  0  0  3  0  0  0  0  0  0
    1.7273   -0.0012   -0.8800 O   0  0  0  0  0  0  0  0  0  0  0  0
    1.3687    0.9297   -1.6561 O   0  0  0  0  0  0  0  0  0  0  0  0
    2.1759    0.7633   -2.7118 O   0  0  0  0  0  0  0  0  0  0  0  0
    3.2433    0.0093   -2.8699 C   0  0  1  0  0  0  0  0  0  0  0  0
    4.2089    1.2696   -2.1227 C   0  0  0  0  0  0  0  0  0  0  0  0
    3.7164   -0.9607   -2.2688 O   0  0  0  0  0  0  0  0  0  0  0  0
    4.1569   -1.0128   -0.9931 C   0  0  0  0  0  0  0  0  0  0  0  0
    5.3599   -0.3581   -0.9106 O   0  0  0  0  0  0  0  0  0  0  0  0
    5.8371   -0.4409    0.2914 C   0  0  0  0  0  3  0  0  0  0  0  0
    7.1146    0.3303    0.4809 C   0  0  0  0  0  0  0  0  0  0  0  0
    7.7996   -0.5590    1.5628 C   0  0  0  0  0  3  0  0  0  0  0  0
    7.4206   -0.0061    2.7981 O   0  0  0  0  0  0  0  0  0  0  0  0
  2  1  1  6
  2  3  1  0
  3  4  1  0
  4  5  1  6
  4  6  1  0
  6  7  1  6
  6  8  1  0
  8  9  1  1
  8 10  1  0
 10 11  1  6
 11 12  1  0
 12 13  1  0
 13 14  1  0
 14 15  1  1
 14 16  1  0
 16 17  1  0
 17 18  1  0
 18 19  1  0
 19 20  1  0
 20 21  1  1
 20 22  1  0
 22 23  1  0
 23 24  1  0
 24 25  1  0
 25 26  1  0
 26 27  1  0
 27 28  1  0
 10  2  1  0
M  RAD  4  12   2  16   2  25   2  27   2
M  END
$$$$
