
     RDKit          3D

 14 14  0  0  0  0  0  0  0  0999 V2000
    3.6728    1.8021    0.1381 C   0  0  0  0  0  3  0  0  0  0  0  0
    3.1737    0.6028   -0.0538 C   0  0  0  0  0  0  0  0  0  0  0  0
    1.3923    0.4145    0.1631 S   0  0  0  0  0  0  0  0  0  0  0  0
    0.9666   -1.2045   -0.1314 O   0  0  0  0  0  0  0  0  0  0  0  0
   -0.1704   -1.6131    0.5610 C   0  0  0  0  0  0  0  0  0  0  0  0
   -1.1714    0.1915   -0.7306 S   0  0  0  0  0  0  0  0  0  0  0  0
   -1.6222   -1.5933   -2.0854 N   0  0  0  0  0  0  0  0  0  0  0  0
   -1.7085    0.8722   -0.2541 S   0  0  0  0  0  0  0  0  0  0  0  0
   -2.4285    0.2387    1.1718 O   0  0  0  0  0  0  0  0  0  0  0  0
   -3.0873   -0.6961    0.3625 C   0  0  0  0  0  0  0  0  0  0  0  0
   -4.1440    0.1030   -0.8465 S   0  0  0  0  0  0  0  0  0  0  0  0
   -4.1054    1.8001   -0.7705 F   0  0  0  0  0  0  0  0  0  0  0  0
    3.9990   -0.5555   -0.4287 C   0  0  0  0  0  0  0  0  0  0  0  0
    5.2333   -0.3624   -0.5651 O   0  0  0  0  0  0  0  0  0  0  0  0
  1  2  2  0
  2  3  1  0
  3  4  1  0
  4  5  1  0
  5  6  1  0
  6  7  2  0
  6  8  1  0
  8  9  1  0
  9 10  1  0
 10 11  1  0
 11 12  1  0
  2 13  1  0
 13 14  2  0
 10  6  1  0
M  RAD  1   1   2
M  END
$$$$
