
     RDKit          3D

 56 57  0  0  0  0  0  0  0  0999 V2000
  -10.7981    3.5078    0.3643 C   0  0  0  0  0  0  0  0  0  0  0  0
  -11.6187    2.5859   -0.5108 C   0  0  0  0  0  0  0  0  0  0  0  0
  -12.8748    3.3391   -0.9361 C   0  0  0  0  0  0  0  0  0  0  0  0
  -12.0771    1.3617    0.2594 C   0  0  0  0  0  0  0  0  0  0  0  0
  -10.8133    0.6433    0.7366 C   0  0  0  0  0  0  0  0  0  0  0  0
  -10.0365    0.2794   -0.5103 C   0  0  0  0  0  0  0  0  0  0  0  0
   -8.7841   -0.4302   -0.0806 C   0  0  1  0  0  0  0  0  0  0  0  0
   -9.0814   -1.6926    0.7003 C   0  0  0  0  0  2  0  0  0  0  0  0
   -7.8510   -0.7099   -1.2237 C   0  0  0  0  0  0  0  0  0  0  0  0
   -6.6316   -1.4223   -0.6794 C   0  0  0  0  0  0  0  0  0  0  0  0
   -5.9840   -0.5052    0.3372 C   0  0  0  0  0  3  0  0  0  0  0  0
   -5.6126    0.7732   -0.4246 C   0  0  0  0  0  0  0  0  0  0  0  0
   -4.6598    0.3494   -1.5162 C   0  0  0  0  0  0  0  0  0  0  0  0
   -3.4362   -0.2914   -0.8982 C   0  0  0  0  0  0  0  0  0  0  0  0
   -2.7756    0.7517    0.0118 C   0  0  0  0  0  0  0  0  0  0  0  0
   -2.3953    1.9453   -0.8523 C   0  0  0  0  0  2  0  0  0  0  0  0
   -1.4554    0.1305    0.5356 C   0  0  0  0  0  0  0  0  0  0  0  0
   -0.8691    1.2159    1.4196 C   0  0  0  0  0  0  0  0  0  0  0  0
   -1.8307   -1.0068    1.4030 C   0  0  0  0  0  3  0  0  0  0  0  0
   -2.6180   -2.1004    0.7779 C   0  0  0  0  0  0  0  0  0  0  0  0
   -3.0958   -3.1911    1.7340 C   0  0  0  0  0  0  0  0  0  0  0  0
   -2.0007   -3.4648    0.7229 C   0  0  0  0  0  0  0  0  0  0  0  0
   -0.6693   -3.7728    1.3335 C   0  0  0  0  0  0  0  0  0  0  0  0
   -0.3788   -5.1018    1.1175 O   0  0  0  0  0  0  0  0  0  0  0  0
   -0.6724   -0.2109   -0.6512 C   0  0  0  0  0  0  0  0  0  0  0  0
   -0.3400    0.9510   -1.5444 C   0  0  0  0  0  0  0  0  0  0  0  0
    0.3814   -1.2392   -0.5717 C   0  0  0  0  0  0  0  0  0  0  0  0
    0.9216   -1.3198   -1.8796 O   0  0  0  0  0  0  0  0  0  0  0  0
    1.9141   -2.2514   -2.0045 C   0  0  0  0  0  3  0  0  0  0  0  0
    2.5724   -2.0424   -3.3508 C   0  0  0  0  0  0  0  0  0  0  0  0
    3.6600   -3.0812   -3.5104 C   0  0  0  0  0  3  0  0  0  0  0  0
    3.0223   -4.4411   -3.4552 C   0  0  0  0  0  0  0  0  0  0  0  0
    2.3084   -4.7070   -2.1632 C   0  0  0  0  0  0  0  0  0  0  0  0
    3.2262   -4.6368   -0.9744 C   0  0  0  0  0  2  0  0  0  0  0  0
    1.5552   -0.9004    0.3225 C   0  0  0  0  0  0  0  0  0  0  0  0
    2.1692    0.3752   -0.1146 C   0  0  0  0  0  0  0  0  0  0  0  0
    2.5053    1.0889    1.1820 C   0  0  0  0  0  3  0  0  0  0  0  0
    2.1949    0.0386    2.2283 C   0  0  0  0  0  0  0  0  0  0  0  0
    1.2285   -0.7813    1.6409 O   0  0  0  0  0  0  0  0  0  0  0  0
    3.4337    0.1745   -0.9332 C   0  0  0  0  0  3  0  0  0  0  0  0
    4.4490   -0.5145   -0.0791 C   0  0  2  0  0  0  0  0  0  0  0  0
    4.0522   -1.7830    0.4444 N   0  0  0  0  0  0  0  0  0  0  0  0
    5.0707   -2.3259    1.2170 N   0  0  0  0  0  0  0  0  0  0  0  0
    5.1509   -1.6235    2.4649 C   0  0  0  0  0  2  0  0  0  0  0  0
    5.1149    0.6123    1.2118 P   0  0  0  0  0  0  0  0  0  0  0  0
    6.0507    1.9495    0.4552 N   0  0  0  0  0  0  0  0  0  0  0  0
    5.7717    1.9658   -0.9009 N   0  0  0  0  0  0  0  0  0  0  0  0
    5.0197    3.1021   -1.2225 N   0  0  0  0  0  0  0  0  0  0  0  0
    5.6925    3.1712    1.0190 N   0  0  0  0  0  0  0  0  0  0  0  0
    6.6654    3.5787    1.9555 N   0  0  0  0  0  0  0  0  0  0  0  0
    7.3323    4.7621    1.4286 C   0  0  0  0  0  3  0  0  0  0  0  0
    8.1532    4.3099    0.3136 N   0  0  0  0  0  0  0  0  0  0  0  0
    8.6143    3.0164    0.6000 N   0  0  0  0  0  0  0  0  0  0  0  0
    9.4304    2.5610   -0.4231 N   0  0  0  0  0  0  0  0  0  0  0  0
   10.8088    2.8641   -0.0910 C   0  0  0  0  0  3  0  0  0  0  0  0
   10.8902    4.1433    0.5567 N   0  0  0  0  0  0  0  0  0  0  0  0
  1  2  1  0
  2  3  1  0
  2  4  1  0
  4  5  1  0
  5  6  1  0
  6  7  1  0
  7  8  1  6
  7  9  1  0
  9 10  1  0
 10 11  1  0
 11 12  1  0
 12 13  1  0
 13 14  1  0
 14 15  1  0
 15 16  1  0
 15 17  1  0
 17 18  1  0
 17 19  1  0
 19 20  1  0
 20 21  1  0
 20 22  1  0
 22 23  1  0
 23 24  1  0
 17 25  1  0
 25 26  1  0
 25 27  1  0
 27 28  1  0
 28 29  1  0
 29 30  1  0
 30 31  1  0
 31 32  1  0
 32 33  1  0
 33 34  1  0
 27 35  1  0
 35 36  1  0
 36 37  1  0
 37 38  1  0
 38 39  1  0
 36 40  1  0
 41 40  1  1
 41 42  1  0
 42 43  1  0
 43 44  1  0
 41 45  1  0
 45 46  1  0
 46 47  1  0
 47 48  1  0
 46 49  1  0
 49 50  1  0
 50 51  1  0
 51 52  1  0
 52 53  1  0
 53 54  1  0
 54 55  1  0
 55 56  1  0
 22 21  1  0
 39 35  1  0
M  RAD  8   8   3  11   2  16   3  19   2  29   2  31   2  34   3  37   2
M  RAD  4  40   2  44   3  51   2  55   2
M  END
$$$$
