
     RDKit          3D

 13 13  0  0  0  0  0  0  0  0999 V2000
   -2.5564   -1.4190    0.6790 N   0  0  0  0  0  0  0  0  0  0  0  0
   -3.6871   -0.7858    0.3121 C   0  0  0  0  0  0  0  0  0  0  0  0
   -3.3815    0.5238    0.2230 N   0  0  0  0  0  0  0  0  0  0  0  0
   -2.0888    0.7271    0.5245 C   0  0  0  0  0  0  0  0  0  0  0  0
   -1.3869    1.9206    0.5505 O   0  0  0  0  0  0  0  0  0  0  0  0
   -1.5608   -0.5257    0.8176 C   0  0  0  0  0  0  0  0  0  0  0  0
   -0.1848   -0.8505    1.2095 C   0  0  0  0  0  0  0  0  0  0  0  0
    0.8050   -0.8335    0.0638 C   0  0  0  0  0  0  0  0  0  0  0  0
    0.7913    0.5630   -0.5207 C   0  0  0  0  0  0  0  0  0  0  0  0
    1.7592    0.6858   -1.6814 C   0  0  0  0  0  0  0  0  0  0  0  0
    3.1796    0.3944   -1.2521 C   0  0  0  0  0  0  0  0  0  0  0  0
    3.2956   -1.0234   -0.6947 C   0  0  0  0  0  0  0  0  0  0  0  0
    5.0155   -1.2282   -0.2309 Cl  0  0  0  0  0  0  0  0  0  0  0  0
  1  2  1  0
  2  3  2  0
  3  4  1  0
  4  5  1  0
  4  6  2  0
  6  7  1  0
  7  8  1  0
  8  9  1  0
  9 10  1  0
 10 11  1  0
 11 12  1  0
 12 13  1  0
  6  1  1  0
M  END
$$$$
