
     RDKit          3D

 85 88  0  0  0  0  0  0  0  0999 V2000
  -14.0556   -4.3833   -4.1567 C   0  0  0  0  0  0  0  0  0  0  0  0
  -13.7888   -4.1983   -2.6789 C   0  0  0  0  0  0  0  0  0  0  0  0
  -14.1488   -5.4573   -1.9129 C   0  0  0  0  0  0  0  0  0  0  0  0
  -14.6763   -3.0705   -2.1393 C   0  0  0  0  0  0  0  0  0  0  0  0
  -14.3417   -1.8142   -2.8838 C   0  0  0  0  0  0  0  0  0  0  0  0
  -15.1965   -0.6848   -2.3785 C   0  0  0  0  0  0  0  0  0  0  0  0
  -14.8788    0.5908   -3.1098 C   0  0  1  0  0  0  0  0  0  0  0  0
  -15.1295    0.4412   -4.5817 C   0  0  0  0  0  0  0  0  0  0  0  0
  -15.7604    1.6775   -2.4796 C   0  0  0  0  0  3  0  0  0  0  0  0
  -15.3702    1.7435   -1.0185 C   0  0  0  0  0  0  0  0  0  0  0  0
  -13.9130    2.1066   -0.8498 C   0  0  0  0  0  0  0  0  0  0  0  0
  -13.5384    2.1652    0.6158 C   0  0  2  0  0  0  0  0  0  0  0  0
  -14.4102    3.2234    1.2743 C   0  0  0  0  0  0  0  0  0  0  0  0
  -12.0614    2.5701    0.7388 C   0  0  0  0  0  3  0  0  0  0  0  0
  -11.2446    1.5603    0.0503 C   0  0  0  0  0  0  0  0  0  0  0  0
  -11.4197    0.1798    0.6530 C   0  0  0  0  0  0  0  0  0  0  0  0
  -12.5701    0.1703    1.6260 C   0  0  0  0  0  0  0  0  0  0  0  0
  -11.5585   -0.9971   -0.3465 C   0  0  0  0  0  0  0  0  0  0  0  0
  -10.3189   -1.9062   -0.2294 C   0  0  0  0  0  0  0  0  0  0  0  0
  -10.6332   -3.1155    0.6442 C   0  0  0  0  0  0  0  0  0  0  0  0
  -11.2325   -2.7313    1.9629 C   0  0  0  0  0  0  0  0  0  0  0  0
  -10.1713   -2.3977    3.0175 C   0  0  0  0  0  0  0  0  0  0  0  0
   -8.7581   -2.4387    2.4569 C   0  0  0  0  0  0  0  0  0  0  0  0
   -8.2902   -1.3118    1.6489 C   0  0  0  0  0  0  0  0  0  0  0  0
   -8.4793   -1.2618    0.1584 C   0  0  0  0  0  0  0  0  0  0  0  0
   -9.0750   -0.2661   -0.5358 C   0  0  0  0  0  0  0  0  0  0  0  0
  -10.3244   -0.0940   -1.5628 C   0  0  0  0  0  3  0  0  0  0  0  0
   -9.9542   -1.3868   -2.5360 C   0  0  0  0  0  0  0  0  0  0  0  0
   -9.5978   -2.3029   -1.4733 C   0  0  0  0  0  0  0  0  0  0  0  0
   -8.5129   -1.5010   -2.1193 C   0  0  0  0  0  0  0  0  0  0  0  0
   -7.9638    0.1914   -1.6367 S   0  0  0  0  0  0  0  0  0  0  0  0
   -9.1567    1.5161   -1.5757 C   0  0  0  0  0  0  0  0  0  0  0  0
   -9.8508    2.0621   -0.3316 C   0  0  1  0  0  0  0  0  0  0  0  0
  -10.1040    3.5409   -0.6859 C   0  0  0  0  0  3  0  0  0  0  0  0
   -8.8471    4.2929   -0.8193 C   0  0  0  0  0  0  0  0  0  0  0  0
   -8.0354    4.5026    0.4147 C   0  0  0  0  0  0  0  0  0  0  0  0
   -6.8269    5.3906   -0.0686 C   0  0  0  0  0  0  0  0  0  0  0  0
   -7.2971    3.2437    0.8959 C   0  0  0  0  0  0  0  0  0  0  0  0
   -6.3153    2.8019   -0.1855 C   0  0  0  0  0  3  0  0  0  0  0  0
   -5.5021    1.6097    0.3330 C   0  0  0  0  0  0  0  0  0  0  0  0
   -4.5220    1.2104   -0.7385 C   0  0  0  0  0  0  0  0  0  0  0  0
   -3.2334    1.2584   -0.5008 C   0  0  0  0  0  0  0  0  0  0  0  0
   -2.7436    1.7026    0.8213 C   0  0  0  0  0  0  0  0  0  0  0  0
   -1.8427    0.6601    1.4701 C   0  0  0  0  0  0  0  0  0  0  0  0
   -0.6576    0.5046    0.4937 C   0  0  0  0  0  0  0  0  0  0  0  0
   -1.2221    0.0461   -0.8286 C   0  0  0  0  0  2  0  0  0  0  0  0
   -0.0521    1.8704    0.3626 C   0  0  0  0  0  0  0  0  0  0  0  0
    0.4406    2.4451    1.6084 C   0  0  0  0  0  0  0  0  0  0  0  0
    1.5254    1.8335    2.3123 C   0  0  0  0  0  0  0  0  0  0  0  0
    1.4794    0.4568    2.7738 C   0  0  0  0  0  3  0  0  0  0  0  0
    1.5666   -0.5899    1.6709 C   0  0  0  0  0  0  0  0  0  0  0  0
    2.8952   -0.3320    0.9641 C   0  0  0  0  0  3  0  0  0  0  0  0
    4.0230   -0.4743    1.9588 C   0  0  0  0  0  0  0  0  0  0  0  0
    5.3123   -0.1445    1.3095 C   0  0  0  0  0  0  0  0  0  0  0  0
    5.4343    1.1721    0.7686 N   0  0  0  0  0  0  0  0  0  0  0  0
    5.8757   -1.2382    0.4402 C   0  0  0  0  0  0  0  0  0  0  0  0
    7.1968   -0.7314   -0.1472 C   0  0  0  0  0  0  0  0  0  0  0  0
    8.1233   -0.4108    1.0105 C   0  0  0  0  0  0  0  0  0  0  0  0
    8.3677   -1.6496    1.8249 C   0  0  1  0  0  0  0  0  0  0  0  0
    9.0137   -2.7613    1.0568 C   0  0  0  0  0  2  0  0  0  0  0  0
    9.0785   -1.3477    2.9446 O   0  0  0  0  0  0  0  0  0  0  0  0
   10.2899   -0.7964    2.6360 C   0  0  0  0  0  0  0  0  0  0  0  0
   10.2115    0.4564    1.8309 C   0  0  0  0  0  3  0  0  0  0  0  0
   11.5016    1.1313    1.5592 C   0  0  0  0  0  0  0  0  0  0  0  0
   12.5376    0.3523    0.8377 C   0  0  0  0  0  0  0  0  0  0  0  0
   12.9781   -0.9155    1.5520 C   0  0  0  0  0  0  0  0  0  0  0  0
   13.5428   -0.5431    2.9168 C   0  0  0  0  0  0  0  0  0  0  0  0
   14.0764   -1.7344    3.6487 C   0  0  0  0  0  0  0  0  0  0  0  0
   14.5783   -2.7936    2.6922 C   0  0  0  0  0  0  0  0  0  0  0  0
   13.3765   -3.6484    2.3242 C   0  0  0  0  0  3  0  0  0  0  0  0
   13.5094   -4.0031    0.8653 C   0  0  0  0  0  0  0  0  0  0  0  0
   13.5701   -2.7774   -0.0214 C   0  0  0  0  0  0  0  0  0  0  0  0
   14.0494   -1.5652    0.6976 C   0  0  0  0  0  0  0  0  0  0  0  0
   14.5296   -0.5475   -0.3042 C   0  0  0  0  0  0  0  0  0  0  0  0
   15.6015   -1.0322   -1.2234 C   0  0  0  0  0  3  0  0  0  0  0  0
   16.8412   -1.4471   -0.4224 C   0  0  0  0  0  0  0  0  0  0  0  0
   17.3366   -0.2767    0.4032 C   0  0  0  0  0  0  0  0  0  0  0  0
   18.5454   -0.5736    1.2197 C   0  0  0  0  0  0  0  0  0  0  0  0
   19.6909   -0.9727    0.3043 C   0  0  0  0  0  0  0  0  0  0  0  0
   19.9125    0.2467   -0.6037 C   0  0  0  0  0  0  0  0  0  0  0  0
   21.0457   -0.0364   -1.5644 C   0  0  0  0  0  0  0  0  0  0  0  0
   21.2203    1.1950   -2.4295 C   0  0  0  0  0  3  0  0  0  0  0  0
   22.3642    0.9081   -3.3827 C   0  0  0  0  0  0  0  0  0  0  0  0
   22.5370    2.1360   -4.2305 C   0  0  0  0  0  0  0  0  0  0  0  0
   23.4043    2.1523   -5.0762 O   0  0  0  0  0  0  0  0  0  0  0  0
  1  2  1  0
  2  3  1  0
  2  4  1  0
  4  5  1  0
  5  6  1  0
  6  7  1  0
  7  8  1  6
  7  9  1  0
  9 10  1  0
 10 11  1  0
 11 12  1  0
 12 13  1  1
 12 14  1  0
 14 15  1  0
 15 16  1  0
 16 17  1  0
 16 18  1  0
 18 19  1  0
 19 20  1  0
 20 21  1  0
 21 22  1  0
 22 23  1  0
 23 24  1  0
 24 25  1  0
 25 26  1  0
 26 27  1  0
 27 28  1  0
 28 29  1  0
 29 30  1  0
 30 31  1  0
 31 32  1  0
 32 33  1  0
 33 34  1  6
 34 35  1  0
 35 36  1  0
 36 37  1  0
 36 38  1  0
 38 39  1  0
 39 40  1  0
 40 41  1  0
 41 42  2  3
 42 43  1  0
 43 44  1  0
 44 45  1  0
 45 46  1  0
 45 47  1  0
 47 48  1  0
 48 49  1  0
 49 50  1  0
 50 51  1  0
 51 52  1  0
 52 53  1  0
 53 54  1  0
 54 55  1  0
 54 56  1  0
 56 57  1  0
 57 58  1  0
 58 59  1  0
 59 60  1  6
 59 61  1  0
 61 62  1  0
 62 63  1  0
 63 64  1  0
 64 65  1  0
 65 66  1  0
 66 67  1  0
 67 68  1  0
 68 69  1  0
 69 70  1  0
 70 71  1  0
 71 72  1  0
 72 73  1  0
 73 74  1  0
 74 75  1  0
 75 76  1  0
 76 77  1  0
 77 78  1  0
 78 79  1  0
 79 80  1  0
 80 81  1  0
 81 82  1  0
 82 83  1  0
 83 84  1  0
 84 85  2  0
 33 15  1  0
 29 19  1  0
 30 28  1  0
 73 66  1  0
M  RAD  8   9   2  14   2  27   2  34   2  39   2  46   3  50   2  52   2
M  RAD  5  60   3  63   2  70   2  75   2  82   2
M  END
$$$$
