
     RDKit          3D

 42 42  0  0  0  0  0  0  0  0999 V2000
   -7.7116    4.5953   -0.1844 C   0  0  0  0  0  0  0  0  0  0  0  0
   -8.4496    3.3406    0.2527 C   0  0  0  0  0  0  0  0  0  0  0  0
   -7.5252    2.4373    1.0400 C   0  0  0  0  0  0  0  0  0  0  0  0
   -6.3294    1.9984    0.2558 C   0  0  0  0  0  0  0  0  0  0  0  0
   -6.6508    1.2334   -0.9820 C   0  0  0  0  0  0  0  0  0  0  0  0
   -7.4075   -0.0044   -0.6814 C   0  0  0  0  0  0  0  0  0  0  0  0
   -6.7931   -0.9909    0.1553 C   0  0  0  0  0  0  0  0  0  0  0  0
   -7.2599   -2.2695    0.6296 C   0  0  0  0  0  0  0  0  0  0  0  0
   -8.5324   -2.1548    1.4629 C   0  0  0  0  0  0  0  0  0  0  0  0
   -7.4562   -3.2466   -0.5138 C   0  0  0  0  0  0  0  0  0  0  0  0
   -5.5727   -0.6681    0.5606 C   0  0  0  0  0  0  0  0  0  0  0  0
   -4.3648   -0.4072    0.9766 C   0  0  0  0  0  0  0  0  0  0  0  0
   -4.3021    0.2305    2.2735 C   0  0  0  0  0  0  0  0  0  0  0  0
   -3.0450   -0.1800    2.9796 C   0  0  0  0  0  0  0  0  0  0  0  0
   -2.0993   -0.9759    2.1479 C   0  0  1  0  0  0  0  0  0  0  0  0
   -2.5293   -2.4258    2.0673 C   0  0  0  0  0  2  0  0  0  0  0  0
   -3.3240   -0.8113    0.0533 C   0  0  0  0  0  0  0  0  0  0  0  0
   -3.4131   -0.2060   -1.3092 C   0  0  0  0  0  0  0  0  0  0  0  0
   -1.9823   -0.4708    0.7200 C   0  0  1  0  0  0  0  0  0  0  0  0
   -1.8819    1.0374    0.7012 C   0  0  0  0  0  0  0  0  0  0  0  0
   -1.7688    1.4844   -0.7269 C   0  0  0  0  0  0  0  0  0  0  0  0
   -0.5271    0.9230   -1.3553 C   0  0  0  0  0  0  0  0  0  0  0  0
    0.6717    1.4565   -0.5789 C   0  0  2  0  0  0  0  0  0  0  0  0
    0.5379    2.9943   -0.7116 C   0  0  0  0  0  0  0  0  0  0  0  0
    1.8594    1.1557   -1.2488 O   0  0  0  0  0  0  0  0  0  0  0  0
    2.1661   -0.1433   -1.4232 C   0  0  0  0  0  0  0  0  0  0  0  0
    2.4207   -0.9824   -0.2289 C   0  0  0  0  0  0  0  0  0  0  0  0
    1.2875   -1.0928    0.7505 C   0  0  0  0  0  0  0  0  0  0  0  0
    2.6637   -2.4117   -0.7409 C   0  0  0  0  0  0  0  0  0  0  0  0
    3.6350   -0.5340    0.5641 C   0  0  0  0  0  0  0  0  0  0  0  0
    4.8984   -0.5711   -0.2347 C   0  0  0  0  0  0  0  0  0  0  0  0
    5.2467   -1.9265   -0.7531 C   0  0  0  0  0  0  0  0  0  0  0  0
    6.5358   -1.8321   -1.5388 C   0  0  0  0  0  0  0  0  0  0  0  0
    7.6549   -1.3329   -0.6631 C   0  0  2  0  0  0  0  0  0  0  0  0
    7.8252   -2.3040    0.4814 C   0  0  0  0  0  0  0  0  0  0  0  0
    8.9311   -1.8911    1.4244 C   0  0  0  0  0  0  0  0  0  0  0  0
    7.2981    0.0236   -0.1145 C   0  0  2  0  0  0  0  0  0  0  0  0
    7.0764    1.0310   -1.2245 C   0  0  0  0  0  0  0  0  0  0  0  0
    8.4712    0.5181    0.7189 C   0  0  0  0  0  0  0  0  0  0  0  0
    9.6780    0.6094   -0.1507 C   0  0  0  0  0  0  0  0  0  0  0  0
   10.2798    1.7734   -0.3109 C   0  0  0  0  0  0  0  0  0  0  0  0
    9.7884    2.9909    0.3499 C   0  0  0  0  0  0  0  0  0  0  0  0
  1  2  1  0
  2  3  1  0
  3  4  1  0
  4  5  1  0
  5  6  1  0
  6  7  1  0
  7  8  1  0
  8  9  1  0
  8 10  1  0
  7 11  2  0
 11 12  2  0
 12 13  1  0
 13 14  1  0
 14 15  1  0
 15 16  1  6
 12 17  1  0
 17 18  1  0
 17 19  1  0
 19 20  1  1
 20 21  1  0
 21 22  1  0
 22 23  1  0
 23 24  1  6
 23 25  1  0
 25 26  1  0
 26 27  1  0
 27 28  1  0
 27 29  1  0
 27 30  1  0
 30 31  1  0
 31 32  1  0
 32 33  1  0
 34 33  1  6
 34 35  1  0
 35 36  1  0
 34 37  1  0
 37 38  1  6
 37 39  1  0
 39 40  1  0
 40 41  2  3
 41 42  1  0
 19 15  1  0
M  RAD  1  16   3
M  END
$$$$
