
     RDKit          3D

 25 26  0  0  0  0  0  0  0  0999 V2000
   -1.3510   -0.6568    0.7571 C   0  0  0  0  0  0  0  0  0  0  0  0
   -2.6279   -1.1657    1.3390 C   0  0  0  0  0  0  0  0  0  0  0  0
   -2.7108   -2.6557    0.9880 C   0  0  0  0  0  0  0  0  0  0  0  0
   -3.8526   -0.5179    0.7756 C   0  0  0  0  0  0  0  0  0  0  0  0
   -4.0229    0.9132    1.1553 C   0  0  0  0  0  0  0  0  0  0  0  0
   -3.0276    1.8386    0.5463 C   0  0  0  0  0  0  0  0  0  0  0  0
   -2.7386    1.5812   -0.8986 C   0  0  1  0  0  0  0  0  0  0  0  0
   -2.7312    2.8680   -1.7043 C   0  0  0  0  0  0  0  0  0  0  0  0
   -1.3067    1.0332   -0.9850 C   0  0  1  0  0  0  0  0  0  0  0  0
   -0.5404    1.7016    0.1346 C   0  0  0  0  0  0  0  0  0  0  0  0
    0.8476    1.1936    0.2890 C   0  0  0  0  0  0  0  0  0  0  0  0
    1.8554    2.3074    0.4883 C   0  0  2  0  0  0  0  0  0  0  0  0
    1.8346    3.1833   -0.7353 C   0  0  0  0  0  0  0  0  0  0  0  0
    3.2307    1.6681    0.6230 C   0  0  0  0  0  0  0  0  0  0  0  0
    3.0252    0.2934    1.2437 C   0  0  0  0  0  0  0  0  0  0  0  0
    3.3337    0.4327    2.7189 C   0  0  0  0  0  0  0  0  0  0  0  0
    3.8959   -0.7529    0.5869 C   0  0  0  0  0  0  0  0  0  0  0  0
    3.1690   -2.0771    0.4838 C   0  0  0  0  0  0  0  0  0  0  0  0
    2.3458   -2.1248   -0.7844 C   0  0  0  0  0  0  0  0  0  0  0  0
    2.7752   -3.2557   -1.6913 C   0  0  0  0  0  0  0  0  0  0  0  0
    2.5386   -0.9374   -1.4892 O   0  0  0  0  0  0  0  0  0  0  0  0
    0.5950   -2.2568   -0.3263 S   0  0  0  0  0  0  0  0  0  0  0  0
   -0.3569   -1.2421   -1.4703 C   0  0  0  0  0  0  0  0  0  0  0  0
   -1.4207   -0.4576   -0.7367 C   0  0  0  0  0  0  0  0  0  0  0  0
   -2.7595   -0.9138   -1.3081 C   0  0  0  0  0  2  0  0  0  0  0  0
  1  2  1  0
  2  3  1  0
  2  4  1  0
  4  5  1  0
  5  6  1  0
  6  7  1  0
  7  8  1  6
  7  9  1  0
  9 10  1  1
 10 11  1  0
 11 12  1  0
 12 13  1  6
 12 14  1  0
 14 15  1  0
 15 16  1  0
 15 17  1  0
 17 18  1  0
 18 19  1  0
 19 20  1  0
 19 21  1  0
 19 22  1  0
 22 23  1  0
 23 24  1  0
 24 25  1  0
 24  1  1  0
 24  9  1  0
M  RAD  1  25   3
M  END
$$$$
