
     RDKit          3D

 37 41  0  0  0  0  0  0  0  0999 V2000
   -4.3477   -4.4590   -0.8451 C   0  0  0  0  0  0  0  0  0  0  0  0
   -4.6746   -3.2095   -1.3533 O   0  0  0  0  0  0  0  0  0  0  0  0
   -4.0107   -2.0529   -0.8835 C   0  0  0  0  0  0  0  0  0  0  0  0
   -2.9732   -2.2957    0.1638 C   0  0  0  0  0  0  0  0  0  0  0  0
   -2.2189   -1.3661    0.7563 C   0  0  0  0  0  0  0  0  0  0  0  0
   -2.6955   -0.2596    0.1245 C   0  0  0  0  0  0  0  0  0  0  0  0
   -3.4393   -0.2559   -0.6002 C   0  0  0  0  0  0  0  0  0  0  0  0
   -4.2890   -0.7961   -1.3458 C   0  0  0  0  0  0  0  0  0  0  0  0
   -4.4349    0.6573   -1.7182 C   0  0  0  0  0  0  0  0  0  0  0  0
   -3.3747    1.5981   -0.9333 C   0  0  0  0  0  0  0  0  0  0  0  0
   -4.3012    2.7644   -0.5435 C   0  0  0  0  0  0  0  0  0  0  0  0
   -4.8078    3.3062   -1.8530 C   0  0  0  0  0  0  0  0  0  0  0  0
   -4.5936    4.5521   -2.2254 C   0  0  0  0  0  0  0  0  0  0  0  0
   -3.8178    5.4408   -1.2988 C   0  0  0  0  0  0  0  0  0  0  0  0
   -2.5952    2.1546   -2.1451 C   0  0  0  0  0  0  0  0  0  0  0  0
   -2.5340    1.3457    0.0386 O   0  0  0  0  0  0  0  0  0  0  0  0
   -1.5999    0.9777    1.0022 C   0  0  0  0  0  0  0  0  0  0  0  0
   -1.3589   -0.3993    1.4459 C   0  0  0  0  0  0  0  0  0  0  0  0
   -0.3925   -0.5493    2.4149 N   0  0  0  0  0  0  0  0  0  0  0  0
    0.6879   -1.1134    2.4743 N   0  0  0  0  0  0  0  0  0  0  0  0
    1.4386   -1.8727    1.5660 C   0  0  0  0  0  0  0  0  0  0  0  0
    0.7351   -3.1533    1.1935 C   0  0  0  0  0  0  0  0  0  0  0  0
    2.8039   -2.2874    2.1961 C   0  0  0  0  0  0  0  0  0  0  0  0
    3.8699   -1.7006    1.2765 C   0  0  0  0  0  0  0  0  0  0  0  0
    3.8126   -2.3528    0.1160 C   0  0  0  0  0  0  0  0  0  0  0  0
    2.4844   -2.0214   -0.5320 C   0  0  0  0  0  0  0  0  0  0  0  0
    1.8130   -1.1788    0.2924 C   0  0  0  0  0  0  0  0  0  0  0  0
    1.5759    0.1078   -0.0764 N   0  0  0  0  0  0  0  0  0  0  0  0
    2.2474    1.1618   -0.6030 C   0  0  0  0  0  0  0  0  0  0  0  0
    3.3432    1.7935   -0.3152 C   0  0  0  0  0  0  0  0  0  0  0  0
    4.2842    1.5729    0.7344 C   0  0  0  0  0  0  0  0  0  0  0  0
    3.9039    0.6741    1.7766 O   0  0  0  0  0  0  0  0  0  0  0  0
    5.4495    2.1994    0.6933 C   0  0  0  0  0  0  0  0  0  0  0  0
    6.6876    1.6374    1.3051 C   0  0  0  0  0  0  0  0  0  0  0  0
    6.8231    0.5775    2.1247 C   0  0  0  0  0  0  0  0  0  0  0  0
    5.8827   -0.5902    2.0745 C   0  0  0  0  0  0  0  0  0  0  0  0
    4.6166   -0.6072    1.7141 C   0  0  0  0  0  0  0  0  0  0  0  0
  1  2  1  0
  2  3  1  0
  3  4  2  0
  4  5  1  0
  5  6  2  0
  6  7  1  0
  7  8  2  0
  8  9  1  0
  9 10  1  0
 10 11  1  0
 11 12  1  0
 12 13  2  3
 13 14  1  0
 10 15  1  0
 10 16  1  0
 16 17  1  0
 17 18  2  3
 18 19  1  0
 19 20  2  3
 20 21  1  0
 21 22  1  0
 21 23  1  0
 23 24  1  0
 24 25  2  0
 25 26  1  0
 26 27  2  0
 27 28  1  0
 28 29  1  0
 29 30  2  3
 30 31  1  0
 31 32  1  0
 31 33  2  0
 33 34  1  0
 34 35  2  0
 35 36  1  0
 36 37  2  0
  8  3  1  0
 18  5  1  0
 27 21  1  0
 37 24  1  0
 37 32  1  0
M  END
$$$$
