
     RDKit          3D

 13 12  0  0  0  0  0  0  0  0999 V2000
   -3.4829    0.4184   -0.8863 C   0  0  0  0  0  0  0  0  0  0  0  0
   -3.7452    0.1006    0.5809 C   0  0  0  0  0  0  0  0  0  0  0  0
   -2.5495    0.5881    1.3956 C   0  0  2  0  0  0  0  0  0  0  0  0
   -2.3993    2.0894    1.1958 C   0  0  0  0  0  0  0  0  0  0  0  0
   -1.3571   -0.1356    0.9107 C   0  0  0  0  0  0  0  0  0  0  0  0
   -0.6982   -0.8550    1.6966 O   0  0  0  0  0  0  0  0  0  0  0  0
   -1.0028    0.0106   -0.4252 O   0  0  0  0  0  0  0  0  0  0  0  0
    0.1504   -0.6981   -0.8648 C   0  0  0  0  0  3  0  0  0  0  0  0
    1.3528    0.2064   -0.6636 C   0  0  0  0  0  0  0  0  0  0  0  0
    2.6068   -0.5030   -1.1171 C   0  0  2  0  0  0  0  0  0  0  0  0
    2.7795   -1.6831   -0.3634 O   0  0  0  0  0  0  0  0  0  0  0  0
    3.7290    0.4124   -0.8363 C   0  0  0  0  0  0  0  0  0  0  0  0
    4.6165    1.1142   -0.6229 N   0  0  0  0  0  0  0  0  0  0  0  0
  1  2  1  0
  2  3  1  0
  3  4  1  6
  3  5  1  0
  5  6  2  0
  5  7  1  0
  7  8  1  0
  8  9  1  0
  9 10  1  0
 10 11  1  1
 10 12  1  0
 12 13  3  0
M  RAD  1   8   2
M  END
$$$$
