
     RDKit          3D

 29 31  0  0  0  0  0  0  0  0999 V2000
    3.5739    1.4503    1.4882 C   0  0  0  0  0  0  0  0  0  0  0  0
    4.7380    2.1338    1.6776 O   0  0  0  0  0  0  0  0  0  0  0  0
    5.7864    2.1625    0.8083 C   0  0  0  0  0  0  0  0  0  0  0  0
    5.7310    1.4931   -0.3293 C   0  0  0  0  0  0  0  0  0  0  0  0
    4.5334    0.7405   -0.6117 C   0  0  0  0  0  0  0  0  0  0  0  0
    3.5287    0.7098    0.2159 C   0  0  0  0  0  0  0  0  0  0  0  0
    2.3173   -0.0999   -0.1554 C   0  0  0  0  0  0  0  0  0  0  0  0
    2.5554   -0.7074   -1.5055 C   0  0  0  0  0  0  0  0  0  0  0  0
    2.0875   -1.1648    0.8839 C   0  0  0  0  0  0  0  0  0  0  0  0
    3.0114   -1.2528    1.8628 C   0  0  0  0  0  0  0  0  0  0  0  0
    2.8448   -2.4583    3.1279 S   0  0  0  0  0  0  0  0  0  0  0  0
    1.3523   -3.4170    2.8167 C   0  0  0  0  0  0  0  0  0  0  0  0
    0.6468   -2.9799    1.6491 C   0  0  0  0  0  0  0  0  0  0  0  0
    0.9308   -2.0056    0.7810 C   0  0  0  0  0  0  0  0  0  0  0  0
   -0.0823   -1.8617   -0.2476 C   0  0  0  0  0  0  0  0  0  0  0  0
   -0.0872   -1.0055   -1.2085 C   0  0  0  0  0  0  0  0  0  0  0  0
   -1.0925   -0.9099   -2.1765 N   0  0  0  0  0  0  0  0  0  0  0  0
   -2.1041    0.0947   -2.2415 C   0  0  0  0  0  0  0  0  0  0  0  0
   -2.9701    0.1262   -1.0361 C   0  0  0  0  0  0  0  0  0  0  0  0
   -2.7387   -0.7339   -0.0614 C   0  0  0  0  0  0  0  0  0  0  0  0
   -3.4727   -0.8742    1.2147 C   0  0  0  0  0  0  0  0  0  0  0  0
   -4.7548   -0.5220    1.3984 C   0  0  0  0  0  0  0  0  0  0  0  0
   -5.7475    0.0599    0.4818 C   0  0  0  0  0  0  0  0  0  0  0  0
   -5.1846    1.1056   -0.4108 C   0  0  0  0  0  0  0  0  0  0  0  0
   -4.0236    1.1340   -1.0458 C   0  0  0  0  0  0  0  0  0  0  0  0
   -1.4838    1.3191   -2.4817 O   0  0  0  0  0  0  0  0  0  0  0  0
   -2.4478    2.2974   -2.5468 C   0  0  0  0  0  0  0  0  0  0  0  0
   -3.5811    1.9020   -3.8857 S   0  0  0  0  0  0  0  0  0  0  0  0
   -3.8668    3.2641   -4.6890 C   0  0  0  0  0  0  0  0  0  0  0  0
  1  2  1  0
  2  3  1  0
  3  4  2  0
  4  5  1  0
  5  6  2  0
  6  7  1  0
  7  8  1  0
  7  9  1  0
  9 10  2  0
 10 11  1  0
 11 12  1  0
 12 13  1  0
 13 14  2  0
 14 15  1  0
 15 16  2  3
 16 17  1  0
 17 18  1  0
 18 19  1  0
 19 20  2  0
 20 21  1  0
 21 22  2  0
 22 23  1  0
 23 24  1  0
 24 25  2  0
 18 26  1  0
 26 27  1  0
 27 28  1  0
 28 29  2  0
  6  1  1  0
 14  9  1  0
 25 19  1  0
M  END
$$$$
