
     RDKit          3D

  9 10  0  0  0  0  0  0  0  0999 V2000
   -1.6819   -0.0702   -0.6486 O   0  0  0  0  0  0  0  0  0  0  0  0
   -0.7763   -1.0240   -1.0079 C   0  0  0  0  0  0  0  0  0  0  0  0
    0.2272   -1.1652    0.1328 C   0  0  0  0  0  0  0  0  0  0  0  0
   -0.6322   -0.6409    1.2929 C   0  0  0  0  0  0  0  0  0  0  0  0
   -1.3381    0.4964    0.5390 C   0  0  0  0  0  0  0  0  0  0  0  0
   -0.3560    1.6414    0.3358 C   0  0  0  0  0  0  0  0  0  0  0  0
    0.8189    1.2146   -0.5318 C   0  0  0  0  0  0  0  0  0  0  0  0
    1.2761   -0.1237   -0.1169 C   0  0  0  0  0  0  0  0  0  0  0  0
    2.4624   -0.3283    0.0047 O   0  0  0  0  0  0  0  0  0  0  0  0
  1  2  1  0
  2  3  1  0
  3  4  1  0
  4  5  1  0
  5  6  1  0
  6  7  1  0
  7  8  1  0
  8  9  2  0
  5  1  1  0
  8  3  1  0
M  END
$$$$
