
     RDKit          3D

 24 25  0  0  0  0  0  0  0  0999 V2000
   -4.8979    0.9352   -1.0006 C   0  0  0  0  0  0  0  0  0  0  0  0
   -4.7995    1.4071    0.3706 N   0  0  0  0  0  0  0  0  0  0  0  0
   -4.6747    0.3085    1.3084 C   0  0  0  0  0  0  0  0  0  0  0  0
   -3.2637   -0.0498    1.6366 C   0  0  0  0  0  0  0  0  0  0  0  0
   -2.3386    0.2565    0.4931 C   0  0  0  0  0  0  0  0  0  0  0  0
   -2.4590    1.6325   -0.0615 C   0  0  0  0  0  0  0  0  0  0  0  0
   -3.6868    2.3241    0.5351 C   0  0  0  0  0  0  0  0  0  0  0  0
   -1.4879   -0.5989    0.1117 O   0  0  0  0  0  0  0  0  0  0  0  0
   -0.6014   -1.4767   -0.2938 C   0  0  0  0  0  0  0  0  0  0  0  0
   -0.4560   -2.7460    0.3004 C   0  0  0  0  0  0  0  0  0  0  0  0
    0.4731   -3.6324   -0.1454 C   0  0  0  0  0  0  0  0  0  0  0  0
    1.2827   -3.2663   -1.2022 C   0  0  0  0  0  0  0  0  0  0  0  0
    2.5924   -4.4861   -1.8474 Br  0  0  0  0  0  0  0  0  0  0  0  0
    1.1778   -2.0438   -1.8108 C   0  0  0  0  0  0  0  0  0  0  0  0
    0.2452   -1.1408   -1.3711 C   0  0  0  0  0  0  0  0  0  0  0  0
    0.0819    0.1926   -1.9983 C   0  0  0  0  0  0  0  0  0  0  0  0
    0.7163    1.2656   -1.1908 C   0  0  0  0  0  0  0  0  0  0  0  0
    2.2049    1.0566   -1.0422 C   0  0  0  0  0  0  0  0  0  0  0  0
    2.7652    2.2192   -0.2566 C   0  0  0  0  0  0  0  0  0  0  0  0
    3.2993    2.0004    0.9214 C   0  0  0  0  0  0  0  0  0  0  0  0
    3.8744    3.0770    1.7646 C   0  0  0  0  0  0  0  0  0  0  0  0
    5.7393    2.6977    2.0877 Br  0  0  0  0  0  0  0  0  0  0  0  0
    2.4606   -0.1474   -0.1223 C   0  0  0  0  0  0  0  0  0  0  0  0
    1.7524    0.2154    1.4921 Cl  0  0  0  0  0  0  0  0  0  0  0  0
  1  2  1  0
  2  3  1  0
  3  4  1  0
  4  5  1  0
  5  6  1  0
  6  7  1  0
  5  8  1  0
  8  9  1  0
  9 10  2  0
 10 11  1  0
 11 12  2  0
 12 13  1  0
 12 14  1  0
 14 15  2  0
 15 16  1  0
 16 17  1  0
 17 18  1  0
 18 19  1  0
 19 20  2  3
 20 21  1  0
 21 22  1  0
 18 23  1  0
 23 24  1  0
  7  2  1  0
 15  9  1  0
M  END
$$$$
