
     RDKit          3D

 15 14  0  0  0  0  0  0  0  0999 V2000
   -5.1376    0.6579   -0.0066 O   0  0  0  0  0  0  0  0  0  0  0  0
   -3.9501    1.1652    0.5171 C   0  0  0  0  0  0  0  0  0  0  0  0
   -2.8238    1.0113   -0.4920 C   0  0  0  0  0  3  0  0  0  0  0  0
   -2.1247   -0.2282   -0.3601 N   0  0  0  0  0  0  0  0  0  0  0  0
   -0.7492   -0.1149   -0.0336 C   0  0  2  0  0  0  0  0  0  0  0  0
    0.1306    0.5724   -1.0074 C   0  0  0  0  0  0  0  0  0  0  0  0
   -0.1946    1.8711   -1.2792 O   0  0  0  0  0  0  0  0  0  0  0  0
   -0.1640   -1.4759    0.3329 C   0  0  1  0  0  0  0  0  0  0  0  0
   -0.3010   -2.3424   -0.7526 O   0  0  0  0  0  0  0  0  0  0  0  0
    1.3193   -1.3504    0.6377 C   0  0  2  0  0  0  0  0  0  0  0  0
    1.4998   -0.4929    1.7204 O   0  0  0  0  0  0  0  0  0  0  0  0
    1.9150   -0.8398   -0.5215 O   0  0  0  0  0  0  0  0  0  0  0  0
    3.2807   -0.6654   -0.3956 C   0  0  0  0  0  3  0  0  0  0  0  0
    3.5976    0.5206    0.5112 C   0  0  0  0  0  0  0  0  0  0  0  0
    3.7020    1.7113   -0.2045 O   0  0  0  0  0  0  0  0  0  0  0  0
  1  2  1  0
  2  3  1  0
  3  4  1  0
  4  5  1  0
  5  6  1  6
  6  7  1  0
  5  8  1  0
  8  9  1  6
  8 10  1  0
 10 11  1  1
 10 12  1  0
 12 13  1  0
 13 14  1  0
 14 15  1  0
M  RAD  2   3   2  13   2
M  END
$$$$
