
     RDKit          3D

 25 24  0  0  0  0  0  0  0  0999 V2000
    6.3823    2.1856    0.2203 C   0  0  0  0  0  0  0  0  0  0  0  0
    7.4432    1.4535    0.9721 C   0  0  0  0  0  0  0  0  0  0  0  0
    8.4492    2.4032    1.5695 C   0  0  0  0  0  0  0  0  0  0  0  0
    6.8992    0.5132    2.0240 C   0  0  0  0  0  0  0  0  0  0  0  0
    6.0140   -0.5425    1.4538 C   0  0  0  0  0  0  0  0  0  0  0  0
    4.8068    0.0211    0.7407 C   0  0  0  0  0  0  0  0  0  0  0  0
    3.9982   -1.1434    0.2133 C   0  0  1  0  0  0  0  0  0  0  0  0
    3.5382   -2.0544    1.3222 C   0  0  0  0  0  0  0  0  0  0  0  0
    2.8144   -0.6377   -0.6070 C   0  0  0  0  0  3  0  0  0  0  0  0
    2.0261   -1.8233   -1.1201 C   0  0  0  0  0  0  0  0  0  0  0  0
    0.8581   -1.2737   -1.9307 C   0  0  0  0  0  0  0  0  0  0  0  0
    0.0331   -0.4199   -1.0063 C   0  0  2  0  0  0  0  0  0  0  0  0
    0.7898    0.7320   -0.4194 C   0  0  0  0  0  0  0  0  0  0  0  0
   -0.6606   -1.2516    0.0512 C   0  0  0  0  0  0  0  0  0  0  0  0
   -1.5646   -2.2392   -0.6620 C   0  0  0  0  0  0  0  0  0  0  0  0
   -2.5707   -1.5174   -1.4817 C   0  0  0  0  0  0  0  0  0  0  0  0
   -2.6116   -0.1800   -1.5337 C   0  0  0  0  0  0  0  0  0  0  0  0
   -3.6457    0.4678   -2.3748 C   0  0  0  0  0  3  0  0  0  0  0  0
   -5.0168   -0.0435   -1.9829 C   0  0  0  0  0  0  0  0  0  0  0  0
   -5.2321    0.3013   -0.5286 C   0  0  0  0  0  0  0  0  0  0  0  0
   -5.1516    1.6954   -0.4261 O   0  0  0  0  0  0  0  0  0  0  0  0
   -6.6170   -0.1801   -0.1535 C   0  0  0  0  0  0  0  0  0  0  0  0
   -6.9244    0.1218    1.2892 C   0  0  0  0  0  0  0  0  0  0  0  0
   -6.8677    1.6084    1.5781 C   0  0  0  0  0  0  0  0  0  0  0  0
   -7.1897    1.8034    3.0458 C   0  0  0  0  0  0  0  0  0  0  0  0
  1  2  1  0
  2  3  1  0
  2  4  1  0
  4  5  1  0
  5  6  1  0
  6  7  1  0
  7  8  1  1
  7  9  1  0
  9 10  1  0
 10 11  1  0
 11 12  1  0
 12 13  1  1
 12 14  1  0
 14 15  1  0
 15 16  1  0
 16 17  2  3
 17 18  1  0
 18 19  1  0
 19 20  1  0
 20 21  1  0
 20 22  1  0
 22 23  1  0
 23 24  1  0
 24 25  1  0
M  RAD  2   9   2  18   2
M  END
$$$$
