
     RDKit          3D

 14 13  0  0  0  0  0  0  0  0999 V2000
   -2.6671    3.7366   -0.6520 S   0  0  0  0  0  0  0  0  0  0  0  0
   -1.2580    2.9763   -0.4227 C   0  0  0  0  0  0  0  0  0  0  0  0
   -0.1134    2.4409   -0.1039 C   0  0  0  0  0  0  0  0  0  0  0  0
   -0.1732    1.2836    0.8023 C   0  0  0  0  0  2  0  0  0  0  0  0
    0.7234    0.2102    0.4842 N   0  0  0  0  0  0  0  0  0  0  0  0
    1.6703    0.5138   -0.5315 C   0  0  0  0  0  0  0  0  0  0  0  0
    2.7023   -0.5965   -0.4957 C   0  0  0  0  0  0  0  0  0  0  0  0
    3.9429   -0.2054   -0.1920 C   0  0  0  0  0  0  0  0  0  0  0  0
    4.8936   -1.1697   -0.1424 F   0  0  0  0  0  0  0  0  0  0  0  0
    0.1757   -1.0362    0.5207 N   0  0  0  0  0  2  0  0  0  0  0  0
   -0.4257   -1.4641   -0.5993 O   0  0  0  0  0  0  0  0  0  0  0  0
   -1.7425   -2.5083   -0.1073 S   0  0  0  0  0  0  0  0  0  0  0  0
   -3.2860   -2.0455   -0.3438 C   0  0  0  0  0  0  0  0  0  0  0  0
   -4.4422   -2.1358   -0.8954 N   0  0  0  0  0  0  0  0  0  0  0  0
  1  2  2  0
  2  3  2  0
  3  4  1  0
  4  5  1  0
  5  6  1  0
  6  7  1  0
  7  8  2  3
  8  9  1  0
  5 10  1  0
 10 11  1  0
 11 12  1  0
 12 13  2  0
 13 14  2  0
M  CHG  1  10   1
M  RAD  2   4   3  10   3
M  END
$$$$
