
     RDKit          3D

 29 30  0  0  0  0  0  0  0  0999 V2000
   -0.1491    5.2670   -0.6821 C   0  0  0  0  0  0  0  0  0  0  0  0
   -0.2314    4.0281    0.1463 C   0  0  0  0  0  0  0  0  0  0  0  0
    0.5499    4.0976    1.4260 C   0  0  0  0  0  0  0  0  0  0  0  0
    0.1177    2.7772   -0.6564 C   0  0  0  0  0  0  0  0  0  0  0  0
    0.0354    1.5490    0.1679 C   0  0  1  0  0  0  0  0  0  0  0  0
   -1.2676    1.2384    0.7675 C   0  0  0  0  0  0  0  0  0  0  0  0
   -2.4665    1.5118   -0.0603 C   0  0  1  0  0  0  0  0  0  0  0  0
   -2.8937    2.9359   -0.1206 C   0  0  0  0  0  0  0  0  0  0  0  0
   -2.5297    0.7807   -1.3568 C   0  0  0  0  0  3  0  0  0  0  0  0
   -3.7559   -0.1408   -1.2951 C   0  0  0  0  0  0  0  0  0  0  0  0
   -3.9226   -0.5652    0.1592 C   0  0  0  0  0  0  0  0  0  0  0  0
   -3.7260   -2.0817    0.2310 C   0  0  1  0  0  0  0  0  0  0  0  0
   -4.9208   -2.7152   -0.4618 C   0  0  0  0  0  0  0  0  0  0  0  0
   -2.4768   -2.3882   -0.5516 C   0  0  0  0  0  3  0  0  0  0  0  0
   -1.2559   -2.5196    0.3418 C   0  0  0  0  0  0  0  0  0  0  0  0
   -0.7667   -1.1601    0.8076 C   0  0  1  0  0  0  0  0  0  0  0  0
   -0.7934   -1.1728    2.3217 C   0  0  0  0  0  0  0  0  0  0  0  0
    0.6226   -0.8653    0.3658 C   0  0  1  0  0  0  0  0  0  0  0  0
    1.3173   -2.0165   -0.2778 C   0  0  0  0  0  0  0  0  0  0  0  0
    2.2692   -2.6446    0.7137 C   0  0  1  0  0  0  0  0  0  0  0  0
    1.9724   -4.0008    0.9170 O   0  0  0  0  0  0  0  0  0  0  0  0
    3.7000   -2.5266    0.2934 C   0  0  0  0  0  0  0  0  0  0  0  0
    4.2487   -1.1633    0.6758 C   0  0  0  0  0  0  0  0  0  0  0  0
    4.4956   -0.3632   -0.5885 C   0  0  2  0  0  0  0  0  0  0  0  0
    5.1276    0.8338   -0.2927 O   0  0  0  0  0  0  0  0  0  0  0  0
    3.1236   -0.0833   -1.2089 C   0  0  0  0  0  3  0  0  0  0  0  0
    2.2835    0.7690   -0.3180 C   0  0  0  0  0  0  0  0  0  0  0  0
    0.7970    0.3982   -0.3929 C   0  0  2  0  0  0  0  0  0  0  0  0
    0.4958    0.2207   -1.8845 C   0  0  0  0  0  2  0  0  0  0  0  0
  1  2  1  0
  2  3  1  0
  2  4  1  0
  5  4  1  6
  5  6  1  0
  6  7  1  0
  7  8  1  6
  7  9  1  0
  9 10  1  0
 10 11  1  0
 11 12  1  0
 12 13  1  6
 12 14  1  0
 14 15  1  0
 15 16  1  0
 16 17  1  1
 16 18  1  0
 18 19  1  6
 19 20  1  0
 20 21  1  6
 20 22  1  0
 22 23  1  0
 23 24  1  0
 24 25  1  1
 24 26  1  0
 26 27  1  0
 27 28  1  0
 28 29  1  6
 28  5  1  0
 28 18  1  0
M  RAD  4   9   2  14   2  26   2  29   3
M  END
>  <fragInfo>  (1) 
5 6 7 8 9 10 11 12 13 14 15 16 17 18 19 20 21 22 23 24 25 26 27 28 29
1 2 3
4


>  <torsionInfo>  (1) 
4 5 2 0
2 4 1 2


>  <atomInfo>  (1) 
1  -0.0627630C 
2  -0.0468481C 
3  -0.0627630C 
4  -0.0475552C 
5  -0.0346659C 
6  -0.0470176C 
7  -0.0408761C 
8  -0.0622237C 
9  -0.0357296C 
10 -0.0496541C 
11 -0.0501520C 
12 -0.0411398C 
13 -0.0622339C 
14 -0.0354764C 
15 -0.0470374C 
16 -0.0405049C 
17 -0.0622115C 
18 -0.0301409C 
19 -0.0233520C 
20 0.05437532C 
21 -0.3931181OA
22 -0.0245309C 
23 -0.0242655C 
24 0.05727305C 
25 -0.3928273OA
26 -0.0093850C 
27 -0.0410809C 
28 -0.0199286C 
29 -0.0278176C 


>  <filename>  (1) 
ligand063

$$$$
