
     RDKit          3D

 33 33  0  0  0  0  0  0  0  0999 V2000
   -6.8055    0.9527   -4.0574 C   0  0  0  0  0  0  0  0  0  0  0  0
   -5.4631    1.2484   -3.7521 O   0  0  0  0  0  0  0  0  0  0  0  0
   -5.3203    1.0710   -2.3578 C   0  0  0  0  0  3  0  0  0  0  0  0
   -5.7848   -0.1991   -2.0114 O   0  0  0  0  0  0  0  0  0  0  0  0
   -5.1349   -0.6821   -0.8959 C   0  0  0  0  0  0  0  0  0  0  0  0
   -5.3913    0.2731    0.2512 C   0  0  0  0  0  0  0  0  0  0  0  0
   -4.6773   -0.2602    1.4708 C   0  0  0  0  0  0  0  0  0  0  0  0
   -3.1987   -0.3527    1.1954 C   0  0  2  0  0  0  0  0  0  0  0  0
   -2.4300   -0.8763    2.3682 C   0  0  1  0  0  0  0  0  0  0  0  0
   -1.5828    0.2576    2.9130 C   0  0  0  0  0  3  0  0  0  0  0  0
   -2.0955    1.4809    2.1822 C   0  0  0  0  0  0  0  0  0  0  0  0
   -2.5930    0.9857    0.8632 C   0  0  2  0  0  0  0  0  0  0  0  0
   -3.5385    1.8296    0.2884 O   0  0  0  0  0  0  0  0  0  0  0  0
   -1.4433    0.7908   -0.1103 C   0  0  0  0  0  0  0  0  0  0  0  0
   -0.3893   -0.0972    0.5169 C   0  0  0  0  0  0  0  0  0  0  0  0
    0.6552   -0.2646   -0.3882 O   0  0  0  0  0  0  0  0  0  0  0  0
    1.5789   -1.0306    0.1354 O   0  0  0  0  0  0  0  0  0  0  0  0
    2.5444   -1.2673   -0.8409 C   0  0  0  0  0  3  0  0  0  0  0  0
    3.5778   -0.3416   -0.7503 O   0  0  0  0  0  0  0  0  0  0  0  0
    4.8156   -0.9693   -0.6514 C   0  0  0  0  0  3  0  0  0  0  0  0
    5.4999   -0.8863   -2.0005 C   0  0  2  0  0  0  0  0  0  0  0  0
    6.8450   -1.5318   -2.0123 C   0  0  0  0  0  0  0  0  0  0  0  0
    7.7277   -0.9533   -1.0998 O   0  0  0  0  0  0  0  0  0  0  0  0
    8.8967   -1.5307   -1.1252 O   0  0  0  0  0  0  0  0  0  0  0  0
    8.8539   -2.8042   -1.4064 O   0  0  0  0  0  0  0  0  0  0  0  0
    5.5090    0.5512   -2.4361 C   0  0  0  0  0  3  0  0  0  0  0  0
    6.1939    1.3209   -1.5167 O   0  0  0  0  0  0  0  0  0  0  0  0
    5.7925    2.6404   -1.4892 C   0  0  0  0  0  0  0  0  0  0  0  0
    4.3379    2.8070   -1.1412 C   0  0  0  0  0  2  0  0  0  0  0  0
   -3.3325   -1.3113    3.3335 O   0  0  0  0  0  0  0  0  0  0  0  0
   -4.1742   -0.3015    3.7899 C   0  0  0  0  0  0  0  0  0  0  0  0
   -5.0940   -0.8912    4.8197 C   0  0  0  0  0  0  0  0  0  0  0  0
   -4.3794   -1.4263    5.9153 O   0  0  0  0  0  0  0  0  0  0  0  0
  1  2  1  0
  2  3  1  0
  3  4  1  0
  4  5  1  0
  5  6  1  0
  6  7  1  0
  8  7  1  1
  8  9  1  0
  9 10  1  0
 10 11  1  0
 11 12  1  0
 12 13  1  6
 12 14  1  0
 14 15  1  0
 15 16  1  0
 16 17  1  0
 17 18  1  0
 18 19  1  0
 19 20  1  0
 21 20  1  1
 21 22  1  0
 22 23  1  0
 23 24  1  0
 24 25  1  0
 21 26  1  0
 26 27  1  0
 27 28  1  0
 28 29  1  0
  9 30  1  1
 30 31  1  0
 31 32  1  0
 32 33  1  0
 12  8  1  0
M  RAD  6   3   2  10   2  18   2  20   2  26   2  29   3
M  END
>  <fragInfo>  (1) 
8 9 10 11 12 13
1 2
3
4
5
6
7
14
15
16
17
18
19
20
21
22
23
24 25
26
27
28 29
30
31
32 33


>  <torsionInfo>  (1) 
7 8 6 0
9 30 0 21
12 14 0 7
2 3 1 2
3 4 2 3
4 5 3 4
5 6 4 5
6 7 5 6
14 15 7 8
15 16 8 9
16 17 9 10
17 18 10 11
18 19 11 12
19 20 12 13
20 21 13 14
21 22 14 15
21 26 14 18
22 23 15 16
23 24 16 17
26 27 18 19
27 28 19 20
30 31 21 22
31 32 22 23


>  <atomInfo>  (1) 
1  0.03885634C 
2  -0.3513390OA
3  0.20866642C 
4  -0.3479858OA
5  0.04996791C 
6  -0.0290105C 
7  -0.0429987C 
8  0.01440796C 
9  0.06642403C 
10 -0.0064327C 
11 -0.0179840C 
12 0.07270440C 
13 -0.3893953OA
14 0.00303756C 
15 0.08507497C 
16 -0.2337280OA
17 -0.1986865OA
18 0.24577626C 
19 -0.3391185OA
20 0.09543381C 
21 0.04337628C 
22 0.09332019C 
23 -0.2058746OA
24 -0.0709144OA
25 -0.2211437OA
26 0.09182005C 
27 -0.3747020OA
28 0.05063444C 
29 -0.0070392C 
30 -0.3751341OA
31 0.07012890C 
32 0.06651669C 
33 -0.3939800OA


>  <filename>  (1) 
ligand047

$$$$
