
     RDKit          3D

 29 29  0  0  0  0  0  0  0  0999 V2000
    8.3692    1.7124   -1.9459 C   0  0  0  0  0  0  0  0  0  0  0  0
    7.7954    0.3446   -1.6388 C   0  0  0  0  0  0  0  0  0  0  0  0
    8.6137   -0.6687   -2.4441 C   0  0  0  0  0  0  0  0  0  0  0  0
    6.3640    0.2197   -2.1332 C   0  0  0  0  0  0  0  0  0  0  0  0
    5.5240    1.2823   -1.4348 C   0  0  0  0  0  0  0  0  0  0  0  0
    5.5606    1.0873    0.0691 C   0  0  0  0  0  0  0  0  0  0  0  0
    5.0130   -0.2704    0.4185 C   0  0  1  0  0  0  0  0  0  0  0  0
    5.0514   -0.4606    1.9199 C   0  0  0  0  0  0  0  0  0  0  0  0
    3.5391   -0.3140    0.0186 C   0  0  0  0  0  3  0  0  0  0  0  0
    3.0085   -1.6721    0.3728 C   0  0  0  0  0  0  0  0  0  0  0  0
    1.5630   -1.7419   -0.0094 C   0  0  0  0  0  0  0  0  0  0  0  0
    0.7125   -0.7071    0.6993 C   0  0  1  0  0  0  0  0  0  0  0  0
    1.2461    0.6617    0.3273 C   0  0  0  0  0  0  0  0  0  0  0  0
   -0.6969   -0.8822    0.2388 C   0  0  0  0  0  0  0  0  0  0  0  0
   -1.6664    0.0710    0.8507 C   0  0  1  0  0  0  0  0  0  0  0  0
   -1.7352   -0.0348    2.3592 C   0  0  0  0  0  2  0  0  0  0  0  0
   -1.4193    1.5123    0.4753 C   0  0  0  0  0  3  0  0  0  0  0  0
   -2.3759    1.9992   -0.5832 C   0  0  0  0  0  0  0  0  0  0  0  0
   -2.5554    1.0118   -1.6988 C   0  0  0  0  0  0  0  0  0  0  0  0
   -3.9974    0.9464   -2.1335 C   0  0  0  0  0  0  0  0  0  0  0  0
   -4.7663    2.0612   -1.4814 C   0  0  0  0  0  0  0  0  0  0  0  0
   -5.8430    1.5111   -0.7536 O   0  0  0  0  0  0  0  0  0  0  0  0
   -5.7658    0.1311   -0.7047 C   0  0  0  0  0  3  0  0  0  0  0  0
   -6.4601   -0.3066    0.5770 C   0  0  0  0  0  3  0  0  0  0  0  0
   -5.9886    0.5790    1.7025 C   0  0  1  0  0  0  0  0  0  0  0  0
   -7.0728    0.8209    2.5473 O   0  0  0  0  0  0  0  0  0  0  0  0
   -4.9672   -0.0618    2.5133 N   0  0  0  0  0  0  0  0  0  0  0  0
   -3.9959   -1.1846    1.5656 S   0  0  0  0  0  0  0  0  0  0  0  0
   -3.0543   -0.2851    0.3062 C   0  0  0  0  0  0  0  0  0  0  0  0
  1  2  1  0
  2  3  1  0
  2  4  1  0
  4  5  1  0
  5  6  1  0
  6  7  1  0
  7  8  1  1
  7  9  1  0
  9 10  1  0
 10 11  1  0
 11 12  1  0
 12 13  1  6
 12 14  1  0
 14 15  1  0
 15 16  1  1
 15 17  1  0
 17 18  1  0
 18 19  1  0
 19 20  1  0
 20 21  1  0
 21 22  1  0
 22 23  1  0
 23 24  1  0
 24 25  1  0
 25 26  1  1
 25 27  1  0
 27 28  1  0
 28 29  1  0
 29 15  1  0
M  RAD  5   9   2  16   3  17   2  23   2  24   2
M  END
>  <fragInfo>  (1) 
15 16 17 18 19 20 21 22 23 24 25 26 27 28 29
1 2 3
4
5
6
7 8
9
10
11
12 13
14


>  <torsionInfo>  (1) 
14 15 10 0
2 4 1 2
4 5 2 3
5 6 3 4
6 7 4 5
7 9 5 6
9 10 6 7
10 11 7 8
11 12 8 9
12 14 9 10


>  <atomInfo>  (1) 
1  -0.0627736C 
2  -0.0471324C 
3  -0.0627736C 
4  -0.0509643C 
5  -0.0527983C 
6  -0.0504266C 
7  -0.0411603C 
8  -0.0622342C 
9  -0.0357404C 
10 -0.0496642C 
11 -0.0504057C 
12 -0.0436899C 
13 -0.0624882C 
14 -0.0436011C 
15 -0.0126277C 
16 -0.0272073C 
17 -0.0311996C 
18 -0.0495051C 
19 -0.0508184C 
20 -0.0295752C 
21 0.04708503C 
22 -0.3750407OA
23 0.09119291C 
24 0.03716549C 
25 0.11920399C 
26 -0.3773657OA
27 -0.2370534NA
28 -0.0793760SA
29 0.01417693C 


>  <filename>  (1) 
ligand015

$$$$
