
     RDKit          3D

 18 20  0  0  0  0  0  0  0  0999 V2000
   -4.4581    1.8808   -0.7078 C   0  0  0  0  0  0  0  0  0  0  0  0
   -3.3321    1.0606   -0.6186 O   0  0  0  0  0  0  0  0  0  0  0  0
   -2.9973    0.9416    0.7146 C   0  0  0  0  0  0  0  0  0  0  0  0
   -1.7985    0.0826    0.9583 C   0  0  2  0  0  0  0  0  0  0  0  0
   -0.5143    0.5120    0.3263 C   0  0  1  0  0  0  0  0  0  0  0  0
   -0.5649    1.2741   -0.7940 O   0  0  0  0  0  0  0  0  0  0  0  0
    0.7512    0.3257    1.0439 C   0  0  2  0  0  0  0  0  0  0  0  0
    1.9309    0.2957    0.0774 C   0  0  1  0  0  0  0  0  0  0  0  0
    3.1649    0.0357    0.9540 C   0  0  0  0  0  0  0  0  0  0  0  0
    4.3983   -0.0142    0.0959 C   0  0  0  0  0  0  0  0  0  0  0  0
    4.5738    1.1952   -0.5795 O   0  0  0  0  0  0  0  0  0  0  0  0
    0.3789   -1.0156    1.2982 O   0  0  0  0  0  0  0  0  0  0  0  0
   -0.2620   -0.9846    0.0729 C   0  0  1  0  0  0  0  0  0  0  0  0
   -1.7245   -1.1621    0.0573 C   0  0  1  0  0  0  0  0  0  0  0  0
   -2.0980   -2.2686    0.8505 O   0  0  0  0  0  0  0  0  0  0  0  0
    0.5390   -1.1029   -1.1473 C   0  0  1  0  0  0  0  0  0  0  0  0
    0.1471   -0.3290   -2.2159 O   0  0  0  0  0  0  0  0  0  0  0  0
    1.8657   -0.7271   -0.8335 O   0  0  0  0  0  0  0  0  0  0  0  0
  1  2  1  0
  2  3  1  0
  4  3  1  6
  4  5  1  0
  5  6  1  6
  5  7  1  0
  7  8  1  0
  8  9  1  1
  9 10  1  0
 10 11  1  0
  7 12  1  6
 13 12  1  1
 13 14  1  0
 14 15  1  1
 13 16  1  0
 16 17  1  6
 16 18  1  0
 14  4  1  0
 13  5  1  0
 18  8  1  0
M  END
>  <fragInfo>  (1) 
4 5 6 7 8 12 13 14 15 16 17 18
1 2
3
9
10 11


>  <torsionInfo>  (1) 
3 4 2 0
8 9 0 3
2 3 1 2
9 10 3 4


>  <atomInfo>  (1) 
1  0.03547541C 
2  -0.3841788OA
3  0.05458688C 
4  0.04610932C 
5  0.13732180C 
6  -0.3832062OA
7  0.11738109C 
8  0.09213609C 
9  -0.0005662C 
10 0.04563000C 
11 -0.3962728OA
12 -0.3546597OA
13 0.17678312C 
14 0.09900600C 
15 -0.3892782OA
16 0.18961091C 
17 -0.3654185OA
18 -0.3434632OA


>  <filename>  (1) 
ligand031

$$$$
