
     RDKit          2D

100100  0  0  0  0  0  0  0  0999 V2000
    4.6120   15.6941    0.0000 C   0  0  0  0  0  0  0  0  0  0  0  0
    5.6157   14.5793    0.0000 C   0  0  0  0  0  0  0  0  0  0  0  0
    7.0829   14.8912    0.0000 C   0  0  0  0  0  0  0  0  0  0  0  0
    5.1522   13.1528    0.0000 C   0  0  0  0  0  0  0  0  0  0  0  0
    6.1559   12.0380    0.0000 C   0  0  0  0  0  0  0  0  0  0  0  0
    5.6923   10.6115    0.0000 C   0  0  0  0  0  0  0  0  0  0  0  0
    6.6960    9.4967    0.0000 C   0  0  0  0  0  0  0  0  0  0  0  0
    8.1633    9.8086    0.0000 C   0  0  0  0  0  0  0  0  0  0  0  0
    6.2325    8.0701    0.0000 C   0  0  0  0  0  3  0  0  0  0  0  0
    4.7653    7.7583    0.0000 C   0  0  0  0  0  0  0  0  0  0  0  0
    4.3018    6.3317    0.0000 C   0  0  0  0  0  0  0  0  0  0  0  0
    2.8345    6.0198    0.0000 C   0  0  0  0  0  0  0  0  0  0  0  0
    1.8308    7.1345    0.0000 C   0  0  0  0  0  0  0  0  0  0  0  0
    2.3710    4.5932    0.0000 C   0  0  0  0  0  3  0  0  0  0  0  0
    3.3747    3.4785    0.0000 C   0  0  0  0  0  0  0  0  0  0  0  0
    2.9112    2.0519    0.0000 C   0  0  0  0  0  0  0  0  0  0  0  0
    1.4440    1.7401    0.0000 C   0  0  0  0  0  0  0  0  0  0  0  0
    3.9149    0.9372    0.0000 C   0  0  0  0  0  0  0  0  0  0  0  0
    5.3821    1.2491    0.0000 C   0  0  0  0  0  0  0  0  0  0  0  0
    6.3858    0.1344    0.0000 C   0  0  0  0  0  0  0  0  0  0  0  0
    7.8530    0.4462    0.0000 C   0  0  0  0  0  0  0  0  0  0  0  0
    7.8530    1.9462    0.0000 C   0  0  0  0  0  0  0  0  0  0  0  0
    8.4631    3.3166    0.0000 C   0  0  0  0  0  0  0  0  0  0  0  0
    9.5778    4.3203    0.0000 C   0  0  0  0  0  0  0  0  0  0  0  0
   11.0044    4.7838    0.0000 C   0  0  0  0  0  0  0  0  0  0  0  0
   12.4962    4.6270    0.0000 C   0  0  0  0  0  0  0  0  0  0  0  0
   12.9597    6.0536    0.0000 C   0  0  0  0  0  0  0  0  0  0  0  0
   13.7952    3.8770    0.0000 C   0  0  0  0  0  0  0  0  0  0  0  0
   14.6769    2.6635    0.0000 C   0  0  0  0  0  0  0  0  0  0  0  0
   14.9888    1.1962    0.0000 C   0  0  0  0  0  0  0  0  0  0  0  0
   14.6769   -0.2710    0.0000 C   0  0  0  0  0  0  0  0  0  0  0  0
   13.7952   -1.4845    0.0000 C   0  0  0  0  0  0  0  0  0  0  0  0
   12.4962   -2.2345    0.0000 C   0  0  0  0  0  0  0  0  0  0  0  0
   11.0044   -2.3913    0.0000 C   0  0  0  0  0  0  0  0  0  0  0  0
    9.5778   -1.9278    0.0000 C   0  0  0  0  0  3  0  0  0  0  0  0
    8.4631   -0.9241    0.0000 C   0  0  0  0  0  0  0  0  0  0  0  0
    7.2496   -1.8058    0.0000 C   0  0  0  0  0  0  0  0  0  0  0  0
    7.4064   -3.2975    0.0000 C   0  0  0  0  0  0  0  0  0  0  0  0
    6.1929   -4.1792    0.0000 C   0  0  0  0  0  0  0  0  0  0  0  0
    6.3497   -5.6710    0.0000 C   0  0  0  0  0  0  0  0  0  0  0  0
    7.7200   -6.2811    0.0000 C   0  0  0  0  0  0  0  0  0  0  0  0
    7.8768   -7.7729    0.0000 C   0  0  0  0  0  0  0  0  0  0  0  0
    8.9335   -5.3994    0.0000 C   0  0  0  0  0  0  0  0  0  0  0  0
   10.3038   -6.0095    0.0000 C   0  0  0  0  0  0  0  0  0  0  0  0
   11.5173   -5.1279    0.0000 C   0  0  0  0  0  0  0  0  0  0  0  0
   12.8877   -5.7380    0.0000 C   0  0  0  0  0  0  0  0  0  0  0  0
   14.1012   -4.8563    0.0000 C   0  0  0  0  0  3  0  0  0  0  0  0
   15.4715   -5.4664    0.0000 C   0  0  0  0  0  0  0  0  0  0  0  0
   16.6850   -4.5847    0.0000 C   0  0  0  0  0  3  0  0  0  0  0  0
   18.0553   -5.1948    0.0000 C   0  0  0  0  0  0  0  0  0  0  0  0
   19.2689   -4.3131    0.0000 C   0  0  0  0  0  0  0  0  0  0  0  0
   20.6392   -4.9232    0.0000 C   0  0  0  0  0  0  0  0  0  0  0  0
   21.8527   -4.0416    0.0000 C   0  0  0  0  0  0  0  0  0  0  0  0
   20.7960   -6.4150    0.0000 C   0  0  0  0  0  0  0  0  0  0  0  0
   22.1663   -7.0251    0.0000 C   0  0  0  0  0  0  0  0  0  0  0  0
   22.3231   -8.5169    0.0000 C   0  0  0  0  0  0  0  0  0  0  0  0
   23.6934   -9.1270    0.0000 C   0  0  0  0  0  0  0  0  0  0  0  0
   24.9069   -8.2453    0.0000 F   0  0  0  0  0  0  0  0  0  0  0  0
   23.8502  -10.6188    0.0000 C   0  0  0  0  0  0  0  0  0  0  0  0
   25.2205  -11.2289    0.0000 C   0  0  0  0  0  0  0  0  0  0  0  0
   22.6367  -11.5005    0.0000 C   0  0  0  0  0  0  0  0  0  0  0  0
   22.7935  -12.9923    0.0000 C   0  0  0  0  0  0  0  0  0  0  0  0
   21.5799  -13.8739    0.0000 C   0  0  0  0  0  0  0  0  0  0  0  0
   21.7367  -15.3657    0.0000 C   0  0  0  0  0  0  0  0  0  0  0  0
   20.5232  -16.2474    0.0000 C   0  0  0  0  0  2  0  0  0  0  0  0
   23.1071  -15.9758    0.0000 C   0  0  0  0  0  0  0  0  0  0  0  0
   23.2639  -17.4676    0.0000 C   0  0  0  0  0  0  0  0  0  0  0  0
   24.6342  -18.0777    0.0000 C   0  0  0  0  0  3  0  0  0  0  0  0
   24.7910  -19.5695    0.0000 C   0  0  0  0  0  0  0  0  0  0  0  0
   26.1613  -20.1796    0.0000 C   0  0  0  0  0  3  0  0  0  0  0  0
   26.3181  -21.6714    0.0000 C   0  0  0  0  0  0  0  0  0  0  0  0
   27.6884  -22.2815    0.0000 C   0  0  0  0  0  0  0  0  0  0  0  0
   27.8452  -23.7733    0.0000 C   0  0  0  0  0  0  0  0  0  0  0  0
   29.2155  -24.3834    0.0000 C   0  0  0  0  0  0  0  0  0  0  0  0
   29.3723  -25.8752    0.0000 C   0  0  0  0  0  0  0  0  0  0  0  0
   30.7426  -26.4853    0.0000 C   0  0  0  0  0  2  0  0  0  0  0  0
   28.1588  -26.7568    0.0000 C   0  0  0  0  0  0  0  0  0  0  0  0
   28.3156  -28.2486    0.0000 C   0  0  0  0  0  0  0  0  0  0  0  0
   27.1020  -29.1303    0.0000 C   0  0  0  0  0  0  0  0  0  0  0  0
   27.2588  -30.6221    0.0000 C   0  0  0  0  0  0  0  0  0  0  0  0
   26.0453  -31.5038    0.0000 C   0  0  0  0  0  0  0  0  0  0  0  0
   28.6291  -31.2322    0.0000 C   0  0  0  0  0  0  0  0  0  0  0  0
   28.7859  -32.7240    0.0000 C   0  0  0  0  0  0  0  0  0  0  0  0
   30.1563  -33.3341    0.0000 C   0  0  0  0  0  3  0  0  0  0  0  0
   30.3131  -34.8259    0.0000 N   0  0  0  0  0  0  0  0  0  0  0  0
   29.0995  -35.7075    0.0000 N   0  0  0  0  0  0  0  0  0  0  0  0
   31.6834  -35.4360    0.0000 C   0  0  0  0  0  0  0  0  0  0  0  0
   31.8402  -36.9277    0.0000 C   0  0  0  0  0  0  0  0  0  0  0  0
   33.2105  -37.5378    0.0000 C   0  0  0  0  0  3  0  0  0  0  0  0
   33.3673  -39.0296    0.0000 N   0  0  0  0  0  0  0  0  0  0  0  0
   34.7376  -39.6397    0.0000 C   0  0  0  0  0  0  0  0  0  0  0  0
   34.8944  -41.1315    0.0000 C   0  0  0  0  0  0  0  0  0  0  0  0
   36.2647  -41.7416    0.0000 C   0  0  0  0  0  3  0  0  0  0  0  0
   36.4215  -43.2334    0.0000 C   0  0  0  0  0  0  0  0  0  0  0  0
   37.7918  -43.8435    0.0000 C   0  0  0  0  0  3  0  0  0  0  0  0
   37.9486  -45.3353    0.0000 C   0  0  0  0  0  3  0  0  0  0  0  0
   39.3189  -45.9454    0.0000 N   0  0  0  0  0  0  0  0  0  0  0  0
   39.4757  -47.4372    0.0000 C   0  0  0  0  0  0  0  0  0  0  0  0
   40.8460  -48.0473    0.0000 C   0  0  0  0  0  0  0  0  0  0  0  0
   41.0028  -49.5391    0.0000 C   0  0  0  0  0  0  0  0  0  0  0  0
  1  2  1  0
  2  3  1  0
  2  4  1  0
  4  5  1  0
  5  6  1  0
  6  7  1  0
  7  8  1  1
  7  9  1  0
  9 10  1  0
 10 11  1  0
 11 12  1  0
 12 13  1  1
 12 14  1  0
 14 15  1  0
 15 16  1  0
 16 17  1  0
 16 18  1  0
 18 19  1  0
 19 20  1  0
 20 21  1  0
 21 22  1  0
 22 23  1  0
 23 24  1  0
 24 25  1  0
 25 26  1  0
 26 27  1  0
 26 28  1  0
 28 29  1  0
 29 30  1  0
 30 31  1  0
 31 32  1  0
 32 33  1  0
 33 34  1  0
 34 35  1  0
 35 36  1  0
 36 37  2  3
 37 38  1  0
 38 39  1  0
 39 40  1  0
 40 41  1  0
 41 42  1  0
 41 43  1  0
 43 44  1  0
 44 45  1  0
 45 46  1  0
 46 47  1  0
 47 48  1  0
 48 49  1  0
 49 50  1  0
 50 51  1  0
 51 52  1  0
 52 53  1  0
 52 54  1  0
 54 55  1  0
 55 56  1  0
 56 57  1  0
 57 58  1  6
 57 59  1  0
 59 60  1  0
 59 61  1  0
 61 62  1  0
 62 63  1  0
 63 64  1  0
 64 65  1  0
 64 66  1  0
 66 67  1  0
 67 68  1  0
 68 69  1  0
 69 70  1  0
 70 71  1  0
 71 72  1  0
 72 73  1  0
 73 74  1  0
 74 75  1  0
 75 76  1  6
 75 77  1  0
 77 78  1  0
 78 79  1  0
 79 80  1  0
 80 81  1  1
 80 82  1  0
 82 83  1  0
 83 84  1  0
 84 85  1  0
 85 86  1  0
 85 87  1  0
 87 88  1  0
 88 89  1  0
 89 90  1  0
 90 91  1  0
 91 92  1  0
 92 93  1  0
 93 94  1  0
 94 95  1  0
 95 96  1  0
 96 97  1  0
 97 98  1  0
 98 99  1  0
 99100  1  0
 36 21  1  0
M  RAD  8   9   2  14   2  35   2  47   2  49   2  65   3  68   2  70   2
M  RAD  6  76   3  84   2  89   2  93   2  95   2  96   2
M  END
>  <fragInfo>  (1) 
21 22 23 24 25 26 27 28 29 30 31 32 33 34 35 36 37
1 2 3
4
5
6
7 8
9
10
11
12 13
14
15
16 17
18
19
20
38
39
40
41 42
43
44
45
46
47
48
49
50
51
52 53
54
55
56
57 58
59 60
61
62
63
64 65
66
67
68
69
70
71
72
73
74
75 76
77
78
79
80 81
82
83
84
85 86
87
88
89
90
91
92
93
94
95
96
97
98
99 100


>  <torsionInfo>  (1) 
20 21 15 0
37 38 0 16
2 4 1 2
4 5 2 3
5 6 3 4
6 7 4 5
7 9 5 6
9 10 6 7
10 11 7 8
11 12 8 9
12 14 9 10
14 15 10 11
15 16 11 12
16 18 12 13
18 19 13 14
19 20 14 15
38 39 16 17
39 40 17 18
40 41 18 19
41 43 19 20
43 44 20 21
44 45 21 22
45 46 22 23
46 47 23 24
47 48 24 25
48 49 25 26
49 50 26 27
50 51 27 28
51 52 28 29
52 54 29 30
54 55 30 31
55 56 31 32
56 57 32 33
57 59 33 34
59 61 34 35
61 62 35 36
62 63 36 37
63 64 37 38
64 66 38 39
66 67 39 40
67 68 40 41
68 69 41 42
69 70 42 43
70 71 43 44
71 72 44 45
72 73 45 46
73 74 46 47
74 75 47 48
75 77 48 49
77 78 49 50
78 79 50 51
79 80 51 52
80 82 52 53
82 83 53 54
83 84 54 55
84 85 55 56
85 87 56 57
87 88 57 58
88 89 58 59
89 90 59 60
90 91 60 61
91 92 61 62
92 93 62 63
93 94 63 64
94 95 64 65
95 96 65 66
96 97 66 67
97 98 67 68
98 99 68 69


>  <atomInfo>  (1) 
1  -0.0627736C 
2  -0.0471324C 
3  -0.0627736C 
4  -0.0509643C 
5  -0.0527983C 
6  -0.0504266C 
7  -0.0411603C 
8  -0.0622342C 
9  -0.0357403C 
10 -0.0496542C 
11 -0.0501520C 
12 -0.0411400C 
13 -0.0622339C 
14 -0.0354871C 
15 -0.0473243C 
16 -0.0439958C 
17 -0.0624991C 
18 -0.0506793C 
19 -0.0524813C 
20 -0.0466746C 
21 -0.0200240C 
22 -0.0466844C 
23 -0.0527253C 
24 -0.0530309C 
25 -0.0507108C 
26 -0.0442800C 
27 -0.0625097C 
28 -0.0507111C 
29 -0.0530522C 
30 -0.0532960C 
31 -0.0533054C 
32 -0.0532842C 
33 -0.0527135C 
34 -0.0461080C 
35 -0.0134709C 
36 -0.0673986C 
37 -0.0847492C 
38 -0.0347735C 
39 -0.0495610C 
40 -0.0504161C 
41 -0.0442691C 
42 -0.0625095C 
43 -0.0507108C 
44 -0.0530419C 
45 -0.0530218C 
46 -0.0501723C 
47 -0.0383006C 
48 -0.0470607C 
49 -0.0382905C 
50 -0.0499188C 
51 -0.0504370C 
52 -0.0442680C 
53 -0.0625095C 
54 -0.0506069C 
55 -0.0502770C 
56 -0.0214086C 
57 0.10265151C 
58 -0.2472005F 
59 -0.0127934C 
60 -0.0597324C 
61 -0.0479301C 
62 -0.0526735C 
63 -0.0501499C 
64 -0.0380036C 
65 -0.0318005C 
66 -0.0498877C 
67 -0.0498981C 
68 -0.0382901C 
69 -0.0470607C 
70 -0.0383006C 
71 -0.0501723C 
72 -0.0530214C 
73 -0.0530213C 
74 -0.0501616C 
75 -0.0380139C 
76 -0.0318007C 
77 -0.0501518C 
78 -0.0527779C 
79 -0.0506998C 
80 -0.0442201C 
81 -0.0625087C 
82 -0.0491072C 
83 -0.0343122C 
84 0.04102660C 
85 -0.2423262NA
86 -0.2684771NA
87 0.01473466C 
88 -0.0219786C 
89 0.02339039C 
90 -0.3123680NA
91 -0.0042904C 
92 -0.0375284C 
93 -0.0369855C 
94 -0.0454059C 
95 -0.0197782C 
96 0.02550547C 
97 -0.3121395NA
98 -0.0048167C 
99 -0.0435199C 
100-0.0641717C 


>  <filename>  (1) 
ligand009

$$$$
