
     RDKit          2D

 77 77  0  0  0  0  0  0  0  0999 V2000
    6.7068    5.4244    0.0000 C   0  0  0  0  0  0  0  0  0  0  0  0
    6.3731    3.9620    0.0000 O   0  0  0  0  0  0  0  0  0  0  0  0
    4.9397    3.5199    0.0000 C   0  0  0  0  0  3  0  0  0  0  0  0
    4.6059    2.0575    0.0000 O   0  0  0  0  0  0  0  0  0  0  0  0
    3.1726    1.6154    0.0000 C   0  0  0  0  0  0  0  0  0  0  0  0
    2.0730    2.6356    0.0000 C   0  0  0  0  0  0  0  0  0  0  0  0
    2.8388    0.1530    0.0000 C   0  0  0  0  0  3  0  0  0  0  0  0
    3.9384   -0.8673    0.0000 C   0  0  0  0  0  0  0  0  0  0  0  0
    5.3347   -0.3193    0.0000 C   0  0  0  0  0  3  0  0  0  0  0  0
    6.6337   -1.0693    0.0000 C   0  0  0  0  0  3  0  0  0  0  0  0
    6.8573   -2.5525    0.0000 C   0  0  0  0  0  0  0  0  0  0  0  0
    8.2906   -2.9946    0.0000 C   0  0  0  0  0  0  0  0  0  0  0  0
    9.3902   -1.9744    0.0000 O   0  0  0  0  0  0  0  0  0  0  0  0
    5.8370   -3.6521    0.0000 O   0  0  0  0  0  0  0  0  0  0  0  0
    4.3412   -3.5400    0.0000 C   0  0  0  0  0  0  0  0  0  0  0  0
    3.5912   -4.8390    0.0000 O   0  0  0  0  0  0  0  0  0  0  0  0
    4.3412   -6.1381    0.0000 C   0  0  0  0  0  3  0  0  0  0  0  0
    3.5912   -7.4371    0.0000 C   0  0  0  0  0  0  0  0  0  0  0  0
    4.3412   -8.7361    0.0000 O   0  0  0  0  0  0  0  0  0  0  0  0
    3.5912  -10.0352    0.0000 C   0  0  0  0  0  3  0  0  0  0  0  0
    4.3412  -11.3342    0.0000 O   0  0  0  0  0  0  0  0  0  0  0  0
    3.5912  -12.6333    0.0000 N   0  0  0  0  0  0  0  0  0  0  0  0
    4.3412  -13.9323    0.0000 C   0  0  0  0  0  3  0  0  0  0  0  0
    3.5912  -15.2313    0.0000 N   0  0  0  0  0  0  0  0  0  0  0  0
    3.4962   -2.3006    0.0000 C   0  0  0  0  0  0  0  0  0  0  0  0
    2.0130   -2.5242    0.0000 O   0  0  0  0  0  0  0  0  0  0  0  0
    1.4650   -3.9205    0.0000 C   0  0  0  0  0  0  0  0  0  0  0  0
    2.4002   -5.0933    0.0000 C   0  0  0  0  0  3  0  0  0  0  0  0
    1.8522   -6.4896    0.0000 C   0  0  0  0  0  0  0  0  0  0  0  0
    2.7874   -7.6623    0.0000 C   0  0  0  0  0  2  0  0  0  0  0  0
    0.3689   -6.7131    0.0000 O   0  0  0  0  0  0  0  0  0  0  0  0
   -0.1791   -8.1094    0.0000 C   0  0  0  0  0  3  0  0  0  0  0  0
   -1.6623   -8.3330    0.0000 C   0  0  0  0  0  0  0  0  0  0  0  0
   -2.2103   -9.7293    0.0000 O   0  0  0  0  0  0  0  0  0  0  0  0
   -3.6936   -9.9529    0.0000 C   0  0  0  0  0  3  0  0  0  0  0  0
   -4.2416  -11.3492    0.0000 O   0  0  0  0  0  0  0  0  0  0  0  0
   -5.7248  -11.5728    0.0000 C   0  0  0  0  0  3  0  0  0  0  0  0
   -6.2728  -12.9691    0.0000 O   0  0  0  0  0  0  0  0  0  0  0  0
   -7.7561  -13.1926    0.0000 C   0  0  0  0  0  3  0  0  0  0  0  0
   -8.3041  -14.5889    0.0000 O   0  0  0  0  0  0  0  0  0  0  0  0
   -9.7873  -14.8125    0.0000 C   0  0  0  0  0  3  0  0  0  0  0  0
  -10.3354  -16.2088    0.0000 C   0  0  0  0  0  2  0  0  0  0  0  0
   -0.0183   -4.1441    0.0000 O   0  0  0  0  0  0  0  0  0  0  0  0
   -0.5663   -5.5404    0.0000 C   0  0  0  0  0  0  0  0  0  0  0  0
   -2.0495   -5.7639    0.0000 C   0  0  0  0  0  3  0  0  0  0  0  0
   -2.9848   -4.5912    0.0000 C   0  0  0  0  0  3  0  0  0  0  0  0
   -4.4680   -4.8148    0.0000 C   0  0  0  0  0  3  0  0  0  0  0  0
   -5.4032   -3.6420    0.0000 C   0  0  0  0  0  0  0  0  0  0  0  0
   -6.8865   -3.8656    0.0000 C   0  0  0  0  0  0  0  0  0  0  0  0
   -7.8217   -2.6928    0.0000 C   0  0  0  0  0  0  0  0  0  0  0  0
   -7.4345   -5.2619    0.0000 C   0  0  0  0  0  0  0  0  0  0  0  0
   -8.9178   -5.4855    0.0000 O   0  0  0  0  0  0  0  0  0  0  0  0
   -9.4658   -6.8818    0.0000 N   0  0  0  0  0  0  0  0  0  0  0  0
  -10.9490   -7.1053    0.0000 C   0  0  0  0  0  3  0  0  0  0  0  0
  -11.4970   -8.5016    0.0000 C   0  0  0  0  0  3  0  0  0  0  0  0
  -12.9803   -8.7252    0.0000 C   0  0  0  0  0  3  0  0  0  0  0  0
  -13.5283  -10.1215    0.0000 C   0  0  0  0  0  0  0  0  0  0  0  0
  -12.5930  -11.2943    0.0000 O   0  0  0  0  0  0  0  0  0  0  0  0
  -15.0115  -10.3451    0.0000 C   0  0  0  0  0  3  0  0  0  0  0  0
  -15.5595  -11.7414    0.0000 O   0  0  0  0  0  0  0  0  0  0  0  0
  -17.0428  -11.9650    0.0000 N   0  0  0  0  0  0  0  0  0  0  0  0
  -17.5908  -13.3613    0.0000 C   0  0  0  0  0  0  0  0  0  0  0  0
  -17.9780  -10.7922    0.0000 O   0  0  0  0  0  0  0  0  0  0  0  0
   -4.8552   -2.2457    0.0000 C   0  0  0  0  0  3  0  0  0  0  0  0
   -5.7905   -1.0730    0.0000 O   0  0  0  0  0  0  0  0  0  0  0  0
   -5.2425    0.3234    0.0000 N   0  0  0  0  0  0  0  0  0  0  0  0
   -6.1777    1.4961    0.0000 C   0  0  0  0  0  0  0  0  0  0  0  0
   -5.6297    2.8924    0.0000 C   0  0  0  0  0  0  0  0  0  0  0  0
   -7.6609    1.2725    0.0000 C   0  0  0  0  0  0  0  0  0  0  0  0
   -8.5962    2.4453    0.0000 N   0  0  0  0  0  0  0  0  0  0  0  0
  -10.0794    2.2217    0.0000 C   0  0  0  0  0  3  0  0  0  0  0  0
  -11.0147    3.3945    0.0000 N   0  0  0  0  0  0  0  0  0  0  0  0
  -12.4979    3.1709    0.0000 N   0  0  0  0  0  0  0  0  0  0  0  0
  -13.4331    4.3436    0.0000 C   0  0  0  0  0  3  0  0  0  0  0  0
  -14.9164    4.1201    0.0000 N   0  0  0  0  0  0  0  0  0  0  0  0
  -15.8516    5.2928    0.0000 C   0  0  0  0  0  3  0  0  0  0  0  0
  -17.3349    5.0693    0.0000 C   0  0  0  0  0  2  0  0  0  0  0  0
  1  2  1  0
  2  3  1  0
  3  4  1  0
  4  5  1  0
  5  6  1  1
  5  7  1  0
  8  7  1  1
  8  9  1  0
  9 10  1  0
 10 11  1  0
 11 12  1  1
 12 13  2  0
 11 14  1  0
 14 15  1  0
 15 16  1  0
 16 17  1  0
 17 18  1  0
 18 19  1  0
 19 20  1  0
 20 21  1  0
 21 22  1  0
 22 23  1  0
 23 24  1  0
  8 25  1  0
 25 26  1  6
 26 27  1  0
 27 28  1  6
 28 29  1  0
 29 30  1  6
 29 31  1  0
 31 32  1  0
 32 33  1  0
 33 34  1  0
 34 35  1  0
 35 36  1  0
 36 37  1  0
 37 38  1  0
 38 39  1  0
 39 40  1  0
 40 41  1  0
 41 42  1  0
 27 43  1  0
 43 44  1  0
 44 45  1  0
 45 46  1  0
 46 47  1  0
 48 47  1  6
 48 49  1  0
 49 50  1  1
 49 51  1  0
 51 52  1  0
 52 53  1  0
 53 54  1  0
 54 55  1  0
 55 56  1  0
 56 57  1  0
 57 58  1  6
 57 59  1  0
 59 60  1  0
 60 61  1  0
 61 62  1  0
 61 63  1  0
 48 64  1  0
 64 65  1  0
 65 66  1  0
 66 67  1  0
 67 68  1  1
 67 69  1  0
 69 70  1  0
 70 71  1  0
 71 72  1  0
 72 73  1  0
 73 74  1  0
 74 75  1  0
 75 76  1  0
 76 77  1  0
 25 15  1  0
M  RAD  8   3   2   7   2   9   2  10   2  17   2  20   2  23   2  28   2
M  RAD  8  30   3  32   2  35   2  37   2  39   2  41   2  42   3  45   2
M  RAD  8  46   2  47   2  54   2  55   2  56   2  59   2  64   2  71   2
M  RAD  3  74   2  76   2  77   3
M  END
>  <fragInfo>  (1) 
8 9 10 11 14 15 25
1 2
3
4
5 6
7
12 13
16
17
18
19
20
21
22
23 24
26
27
28
29 30
31
32
33
34
35
36
37
38
39
40
41 42
43
44
45
46
47
48
49 50
51
52
53
54
55
56
57 58
59
60
61 62 63
64
65
66
67 68
69
70
71
72
73
74
75
76 77


>  <torsionInfo>  (1) 
7 8 5 0
11 12 0 6
15 16 0 7
25 26 0 15
2 3 1 2
3 4 2 3
4 5 3 4
5 7 4 5
16 17 7 8
17 18 8 9
18 19 9 10
19 20 10 11
20 21 11 12
21 22 12 13
22 23 13 14
26 27 15 16
27 28 16 17
27 43 16 30
28 29 17 18
29 31 18 19
31 32 19 20
32 33 20 21
33 34 21 22
34 35 22 23
35 36 23 24
36 37 24 25
37 38 25 26
38 39 26 27
39 40 27 28
40 41 28 29
43 44 30 31
44 45 31 32
45 46 32 33
46 47 33 34
47 48 34 35
48 49 35 36
48 64 35 47
49 51 36 37
51 52 37 38
52 53 38 39
53 54 39 40
54 55 40 41
55 56 41 42
56 57 42 43
57 59 43 44
59 60 44 45
60 61 45 46
64 65 47 48
65 66 48 49
66 67 49 50
67 69 50 51
69 70 51 52
70 71 52 53
71 72 53 54
72 73 54 55
73 74 55 56
74 75 56 57
75 76 57 58


>  <atomInfo>  (1) 
1  0.03885651C 
2  -0.3513313OA
3  0.20894051C 
4  -0.3446066OA
5  0.06161557C 
6  -0.0382517C 
7  -0.0036684C 
8  -0.0006593C 
9  -0.0257881C 
10 0.00154587C 
11 0.11943552C 
12 0.14869390C 
13 -0.3004505OA
14 -0.3388403OA
15 0.18504647C 
16 -0.3414477OA
17 0.11270813C 
18 0.07908098C 
19 -0.3438056OA
20 0.23016481C 
21 -0.2627239OA
22 -0.1791838NA
23 0.10961634C 
24 -0.3116455NA
25 0.11500194C 
26 -0.3434196OA
27 0.16356405C 
28 0.04675450C 
29 0.06988000C 
30 -0.0030929C 
31 -0.3689545OA
32 0.10970860C 
33 0.07890763C 
34 -0.3450599OA
35 0.21190451C 
36 -0.3129090OA
37 0.21461163C 
38 -0.3128975OA
39 0.21218386C 
40 -0.3414747OA
41 0.09099675C 
42 -0.0007119C 
43 -0.3519183OA
44 0.05321780C 
45 -0.0089922C 
46 -0.0290291C 
47 -0.0285929C 
48 -0.0020508C 
49 -0.0128995C 
50 -0.0598522C 
51 0.07111185C 
52 -0.3011793OA
53 -0.1975077NA
54 0.05360354C 
55 -0.0114329C 
56 -0.0019637C 
57 0.08856234C 
58 -0.3899111OA
59 0.13872470C 
60 -0.2655368OA
61 -0.0717615NA
62 0.04020263C 
63 -0.2897816OA
64 0.11081839C 
65 -0.2950540OA
66 -0.1980462NA
67 0.04188900C 
68 -0.0462217C 
69 0.01416361C 
70 -0.2968104NA
71 0.10057278C 
72 -0.2362360NA
73 -0.2362274NA
74 0.10080117C 
75 -0.2937717NA
76 0.02750101C 
77 -0.0149484C 


>  <filename>  (1) 
ligand027

$$$$
