
     RDKit          3D

 22 22  0  0  0  0  0  0  0  0999 V2000
   -3.8976    3.3649   -1.5429 C   0  0  0  0  0  0  0  0  0  0  0  0
   -4.4099    2.0881   -1.0057 C   0  0  0  0  0  0  0  0  0  0  0  0
   -3.5854    1.1442   -0.5975 C   0  0  0  0  0  0  0  0  0  0  0  0
   -2.1395    1.2737   -0.6390 C   0  0  0  0  0  0  0  0  0  0  0  0
   -1.3119    0.3573   -0.2423 C   0  0  0  0  0  0  0  0  0  0  0  0
    0.1570    0.5209   -0.2981 C   0  0  0  0  0  0  0  0  0  0  0  0
    0.7935    1.7573   -0.8170 C   0  0  0  0  0  0  0  0  0  0  0  0
    0.9615   -0.4430    0.1185 C   0  0  0  0  0  0  0  0  0  0  0  0
    2.4300   -0.2803    0.0631 C   0  0  0  0  0  0  0  0  0  0  0  0
    3.2041   -1.2407    0.4780 C   0  0  0  0  0  0  0  0  0  0  0  0
    4.6553   -1.1608    0.4576 C   0  0  0  0  0  0  0  0  0  0  0  0
    5.2700    0.0850   -0.0655 C   0  0  0  0  0  0  0  0  0  0  0  0
    5.4069   -2.1406    0.8804 C   0  0  0  0  0  0  0  0  0  0  0  0
    6.8502   -2.0273    0.8458 C   0  0  0  0  0  0  0  0  0  0  0  0
    7.5240   -3.0150    1.2713 O   0  0  0  0  0  0  0  0  0  0  0  0
    7.4720   -0.8874    0.3677 O   0  0  0  0  0  0  0  0  0  0  0  0
   -4.1725   -0.1088   -0.0713 C   0  0  0  0  0  0  0  0  0  0  0  0
   -3.1056   -1.1393    0.1661 C   0  0  0  0  0  0  0  0  0  0  0  0
   -4.9314    0.1251    1.2183 C   0  0  0  0  0  0  0  0  0  0  0  0
   -5.1756   -0.5864   -1.0996 C   0  0  0  0  0  0  0  0  0  0  0  0
   -6.1266    0.4765   -1.5206 C   0  0  0  0  0  0  0  0  0  0  0  0
   -5.8685    1.8368   -0.9120 C   0  0  0  0  0  0  0  0  0  0  0  0
  1  2  1  0
  2  3  2  0
  3  4  1  0
  4  5  2  0
  5  6  1  0
  6  7  1  0
  6  8  2  0
  8  9  1  0
  9 10  2  0
 10 11  1  0
 11 12  1  0
 11 13  2  0
 13 14  1  0
 14 15  2  0
 14 16  1  0
  3 17  1  0
 17 18  1  0
 17 19  1  0
 17 20  1  0
 20 21  1  0
 21 22  1  0
 22  2  1  0
M  END
>  <fragInfo>  (1) 
1 2 3 17 18 19 20 21 22
4 5
6 7 8
9 10
11 12 13
14 15 16


>  <torsionInfo>  (1) 
3 4 0 1
5 6 1 2
8 9 2 3
10 11 3 4
13 14 4 5


>  <atomInfo>  (1) 
1  -0.0433284C 
2  -0.0695743C 
3  -0.0434281C 
4  -0.0582916C 
5  -0.0590330C 
6  -0.0511228C 
7  -0.0397743C 
8  -0.0593164C 
9  -0.0617369C 
10 -0.0590559C 
11 -0.0439269C 
12 -0.0395099C 
13 0.02598499C 
14 0.32806880C 
15 -0.2471024OA
16 -0.4780667OA
17 -0.0103986C 
18 -0.0558145C 
19 -0.0558145C 
20 -0.0437444C 
21 -0.0487186C 
22 -0.0316715C 


>  <filename>  (1) 
ligand034

$$$$
