
     RDKit          3D

 33 37  0  0  0  0  0  0  0  0999 V2000
   -1.9532   -1.5881   -0.9376 C   0  0  0  0  0  0  0  0  0  0  0  0
   -2.7002   -1.7530    0.2266 O   0  0  0  0  0  0  0  0  0  0  0  0
   -4.0773   -1.5974    0.3489 C   0  0  0  0  0  0  0  0  0  0  0  0
   -4.9027   -2.5344    0.9170 C   0  0  0  0  0  0  0  0  0  0  0  0
   -6.2480   -2.3470    1.0195 C   0  0  0  0  0  0  0  0  0  0  0  0
   -6.8241   -1.2015    0.5517 C   0  0  0  0  0  0  0  0  0  0  0  0
   -6.0298   -0.2400   -0.0237 C   0  0  0  0  0  0  0  0  0  0  0  0
   -4.6522   -0.4382   -0.1255 C   0  0  0  0  0  0  0  0  0  0  0  0
   -3.9387    0.5911   -0.7218 O   0  0  0  0  0  0  0  0  0  0  0  0
   -2.6097    0.8924   -0.3376 C   0  0  1  0  0  0  0  0  0  0  0  0
   -1.8604    1.1302   -1.5538 N   0  0  0  0  0  0  0  0  0  0  0  0
   -0.6485    0.3667   -1.6218 C   0  0  1  0  0  0  0  0  0  0  0  0
    0.5493    1.1166   -1.6184 N   0  0  0  0  0  0  0  0  0  0  0  0
   -2.6572    2.0992    0.5534 C   0  0  0  0  0  3  0  0  0  0  0  0
   -1.3499    2.8556    0.5745 C   0  0  0  0  0  0  0  0  0  0  0  0
   -0.7755    3.0304   -0.8114 C   0  0  0  0  0  0  0  0  0  0  0  0
    0.5360    2.3289   -0.8746 C   0  0  1  0  0  0  0  0  0  0  0  0
    1.1263    2.1676    0.5135 C   0  0  0  0  0  0  0  0  0  0  0  0
    1.2892    0.3078    0.7923 Si  0  0  2  0  0  4  0  0  0  0  0  0
    2.0286    0.0521    2.3106 O   0  0  0  0  0  0  0  0  0  0  0  0
    2.4209   -0.3281   -0.5073 C   0  0  0  0  0  0  0  0  0  0  0  0
    3.2601    0.4837   -1.1442 C   0  0  0  0  0  0  0  0  0  0  0  0
    4.1479   -0.0165   -2.1641 C   0  0  0  0  0  0  0  0  0  0  0  0
    5.4102   -0.2483   -1.9004 C   0  0  0  0  0  0  0  0  0  0  0  0
    5.9318   -0.0020   -0.5687 C   0  0  0  0  0  0  0  0  0  0  0  0
    5.7257   -0.9059    0.3776 C   0  0  0  0  0  0  0  0  0  0  0  0
    6.2019   -0.7589    1.7358 C   0  0  0  0  0  0  0  0  0  0  0  0
    5.5577   -0.1362    2.6740 C   0  0  0  0  0  0  0  0  0  0  0  0
    4.3736    0.3676    2.5025 C   0  0  0  0  0  0  0  0  0  0  0  0
    3.2549   -0.5725    2.2239 C   0  0  0  0  0  0  0  0  0  0  0  0
   -0.3872   -0.5078    0.6942 C   0  0  0  0  0  0  0  0  0  0  0  0
   -0.6558   -0.8497   -0.7378 C   0  0  1  0  0  0  0  0  0  0  0  0
    0.4563   -1.7643   -1.2114 C   0  0  0  0  0  2  0  0  0  0  0  0
  1  2  1  0
  2  3  1  0
  3  4  2  0
  4  5  1  0
  5  6  2  0
  6  7  1  0
  7  8  2  0
  8  9  1  0
  9 10  1  0
 10 11  1  0
 12 11  1  1
 12 13  1  0
 10 14  1  1
 14 15  1  0
 15 16  1  0
 17 16  1  1
 17 18  1  0
 19 18  1  6
 19 20  1  0
 19 21  1  0
 21 22  2  3
 22 23  1  0
 23 24  2  3
 24 25  1  0
 25 26  2  3
 26 27  1  0
 27 28  2  0
 28 29  2  0
 29 30  1  0
 19 31  1  0
 31 32  1  0
 32 33  1  6
 32  1  1  0
  8  3  1  0
 32 12  1  0
 17 13  1  0
 30 20  1  0
M  RAD  2  14   2  33   3
M  END
>  <fragInfo>  (1) 
1 2 3 4 5 6 7 8 9 10 11 12 13 14 15 16 17 18 19 20 21 22 23 24 25 26 27 28 29 30 31 32 33


>  <torsionInfo>  (1) 


>  <atomInfo>  (1) 
1  0.09690718C 
2  -0.4890019OA
3  0.16078917A 
4  -0.0160729A 
5  -0.0583060A 
6  -0.0583044A 
7  -0.0159764A 
8  0.16310971A 
9  -0.4710976OA
10 0.15441143C 
11 -0.2659139NA
12 0.06943114C 
13 -0.2986324NA
14 0.01746963C 
15 -0.0436220C 
16 -0.0374201C 
17 0.00826960C 
18 -0.0146480C 
19 0.21945143Si
20 -0.4085790OA
21 -0.0689326C 
22 -0.0678807C 
23 -0.0628825C 
24 -0.0622712C 
25 -0.0616547C 
26 -0.0545321C 
27 -0.0202308C 
28 -0.1228442C 
29 -0.0179271C 
30 0.05995957C 
31 -0.0181252C 
32 0.03657223C 
33 -0.0220729C 


>  <filename>  (1) 
ligand042

$$$$
