
     RDKit          3D

 25 25  0  0  0  0  0  0  0  0999 V2000
    6.5175   -0.8595   -1.0845 C   0  0  0  0  0  0  0  0  0  0  0  0
    5.6470   -1.5817   -0.0602 C   0  0  0  0  0  0  0  0  0  0  0  0
    4.4803   -2.2515   -0.7781 C   0  0  0  0  0  0  0  0  0  0  0  0
    5.1306   -0.5843    0.9801 C   0  0  0  0  0  0  0  0  0  0  0  0
    4.3098    0.4773    0.2698 C   0  0  0  0  0  0  0  0  0  0  0  0
    3.7955    1.4641    1.2767 C   0  0  0  0  0  0  0  0  0  0  0  0
    2.9164    0.8167    2.3253 C   0  0  1  0  0  0  0  0  0  0  0  0
    2.4576    1.8828    3.2772 C   0  0  0  0  0  0  0  0  0  0  0  0
    1.6831    0.1916    1.7086 C   0  0  0  0  0  3  0  0  0  0  0  0
    0.9163    1.2818    1.0208 C   0  0  0  0  0  0  0  0  0  0  0  0
   -0.3365    0.8183    0.3592 C   0  0  2  0  0  0  0  0  0  0  0  0
   -1.3376    0.1964    1.2573 C   0  0  2  0  0  0  0  0  0  0  0  0
   -1.3715   -1.2927    1.2396 C   0  0  0  0  0  0  0  0  0  0  0  0
   -2.6882    0.8258    1.1910 C   0  0  0  0  0  3  0  0  0  0  0  0
   -3.7210   -0.0130    0.5144 C   0  0  0  0  0  0  0  0  0  0  0  0
   -4.7157    0.9380   -0.1560 C   0  0  2  0  0  0  0  0  0  0  0  0
   -6.0501    0.2595   -0.2437 C   0  0  0  0  0  0  0  0  0  0  0  0
   -4.1888    1.2997   -1.5287 C   0  0  0  0  0  0  0  0  0  0  0  0
   -4.0764    0.0194   -2.3210 C   0  0  0  0  0  0  0  0  0  0  0  0
   -3.1190   -0.9382   -1.6558 C   0  0  1  0  0  0  0  0  0  0  0  0
   -3.6094   -2.2165   -1.5407 O   0  0  0  0  0  0  0  0  0  0  0  0
   -1.7839   -0.8640   -2.3614 C   0  0  0  0  0  0  0  0  0  0  0  0
   -1.0541    0.3940   -2.0084 C   0  0  0  0  0  3  0  0  0  0  0  0
   -0.0751    0.0979   -0.9131 C   0  0  2  0  0  0  0  0  0  0  0  0
    0.2732   -1.3419   -0.7684 C   0  0  0  0  0  0  0  0  0  0  0  0
  1  2  1  0
  2  3  1  0
  2  4  1  0
  4  5  1  0
  5  6  1  0
  6  7  1  0
  7  8  1  1
  7  9  1  0
  9 10  1  0
 11 10  1  1
 11 12  1  0
 12 13  1  6
 12 14  1  0
 14 15  1  0
 15 16  1  0
 16 17  1  6
 16 18  1  0
 18 19  1  0
 19 20  1  0
 20 21  1  6
 20 22  1  0
 22 23  1  0
 23 24  1  0
 24 25  1  1
 24 11  1  0
M  RAD  3   9   2  14   2  23   2
M  END
>  <fragInfo>  (1) 
11 12 13 14 15 16 17 18 19 20 21 22 23 24 25
1 2 3
4
5
6
7 8
9
10


>  <torsionInfo>  (1) 
10 11 7 0
2 4 1 2
4 5 2 3
5 6 3 4
6 7 4 5
7 9 5 6
9 10 6 7


>  <atomInfo>  (1) 
1  -0.0627736C 
2  -0.0471324C 
3  -0.0627736C 
4  -0.0509643C 
5  -0.0527983C 
6  -0.0504264C 
7  -0.0411498C 
8  -0.0622340C 
9  -0.0354563C 
10 -0.0465309C 
11 -0.0354334C 
12 -0.0380313C 
13 -0.0619583C 
14 -0.0352025C 
15 -0.0473121C 
16 -0.0439012C 
17 -0.0624975C 
18 -0.0482423C 
19 -0.0267439C 
20 0.05427938C 
21 -0.3931199OA
22 -0.0236183C 
23 -0.0329164C 
24 -0.0379445C 
25 -0.0619568C 


>  <filename>  (1) 
ligand017

$$$$
