
     RDKit          2D

 79 79  0  0  0  0  0  0  0  0999 V2000
   21.1160    3.8971    0.0000 C   0  0  0  0  0  0  0  0  0  0  0  0
   20.3660    2.5981    0.0000 C   0  0  0  0  0  0  0  0  0  0  0  0
   21.1160    1.2990    0.0000 C   0  0  0  0  0  0  0  0  0  0  0  0
   18.8660    2.5981    0.0000 C   0  0  0  0  0  0  0  0  0  0  0  0
   18.1160    1.2990    0.0000 C   0  0  0  0  0  0  0  0  0  0  0  0
   16.6160    1.2990    0.0000 C   0  0  0  0  0  0  0  0  0  0  0  0
   15.8660    0.0000    0.0000 C   0  0  0  0  0  0  0  0  0  0  0  0
   16.6160   -1.2990    0.0000 C   0  0  0  0  0  0  0  0  0  0  0  0
   14.3660    0.0000    0.0000 C   0  0  0  0  0  3  0  0  0  0  0  0
   13.6160    1.2990    0.0000 C   0  0  0  0  0  0  0  0  0  0  0  0
   12.1160    1.2990    0.0000 C   0  0  0  0  0  0  0  0  0  0  0  0
   11.3660    2.5981    0.0000 C   0  0  0  0  0  0  0  0  0  0  0  0
   12.1160    3.8971    0.0000 C   0  0  0  0  0  0  0  0  0  0  0  0
    9.8660    2.5981    0.0000 C   0  0  0  0  0  3  0  0  0  0  0  0
    9.1160    1.2990    0.0000 C   0  0  0  0  0  0  0  0  0  0  0  0
    7.6160    1.2990    0.0000 C   0  0  0  0  0  0  0  0  0  0  0  0
    6.8660    2.5981    0.0000 C   0  0  0  0  0  0  0  0  0  0  0  0
    7.6160    3.8971    0.0000 C   0  0  0  0  0  0  0  0  0  0  0  0
    6.8660    5.1962    0.0000 C   0  0  0  0  0  0  0  0  0  0  0  0
    7.6160    6.4952    0.0000 C   0  0  0  0  0  0  0  0  0  0  0  0
    6.8660    7.7942    0.0000 O   0  0  0  0  0  0  0  0  0  0  0  0
    6.8660    0.0000    0.0000 C   0  0  0  0  0  3  0  0  0  0  0  0
    5.3660    0.0000    0.0000 C   0  0  0  0  0  0  0  0  0  0  0  0
    4.6160   -1.2990    0.0000 C   0  0  0  0  0  0  0  0  0  0  0  0
    5.3660   -2.5981    0.0000 C   0  0  0  0  0  2  0  0  0  0  0  0
    3.1160   -1.2990    0.0000 O   0  0  0  0  0  0  0  0  0  0  0  0
    2.3660    0.0000    0.0000 N   0  0  0  0  0  0  0  0  0  0  0  0
    0.8660    0.0000    0.0000 C   0  0  0  0  0  0  0  0  0  0  0  0
   -0.4330    0.7500    0.0000 C   0  0  0  0  0  0  0  0  0  0  0  0
   -1.1830    2.0490    0.0000 C   0  0  0  0  0  2  0  0  0  0  0  0
   -0.4330   -0.7500    0.0000 C   0  0  0  0  0  0  0  0  0  0  0  0
   -1.1830   -2.0490    0.0000 C   0  0  0  0  0  0  0  0  0  0  0  0
   -2.6830   -2.0490    0.0000 C   0  0  0  0  0  0  0  0  0  0  0  0
   -0.4330   -3.3481    0.0000 C   0  0  0  0  0  0  0  0  0  0  0  0
   -1.1830   -4.6471    0.0000 C   0  0  0  0  0  2  0  0  0  0  0  0
    1.0670   -3.3481    0.0000 C   0  0  0  0  0  3  0  0  0  0  0  0
    1.8170   -4.6471    0.0000 C   0  0  0  0  0  0  0  0  0  0  0  0
    3.3170   -4.6471    0.0000 C   0  0  0  0  0  0  0  0  0  0  0  0
    4.0670   -5.9462    0.0000 C   0  0  0  0  0  0  0  0  0  0  0  0
    4.0670   -3.3481    0.0000 C   0  0  0  0  0  3  0  0  0  0  0  0
    5.5670   -3.3481    0.0000 C   0  0  0  0  0  0  0  0  0  0  0  0
    6.3170   -4.6471    0.0000 C   0  0  0  0  0  0  0  0  0  0  0  0
    5.5670   -5.9462    0.0000 C   0  0  0  0  0  2  0  0  0  0  0  0
    7.8170   -4.6471    0.0000 C   0  0  0  0  0  0  0  0  0  0  0  0
    8.5670   -5.9462    0.0000 C   0  0  0  0  0  2  0  0  0  0  0  0
    8.5670   -3.3481    0.0000 C   0  0  0  0  0  0  0  0  0  0  0  0
   10.0670   -3.3481    0.0000 C   0  0  0  0  0  0  0  0  0  0  0  0
   10.8170   -2.0490    0.0000 C   0  0  0  0  0  2  0  0  0  0  0  0
   10.8170   -4.6471    0.0000 C   0  0  0  0  0  0  0  0  0  0  0  0
   12.3170   -4.6471    0.0000 C   0  0  0  0  0  0  0  0  0  0  0  0
   13.0670   -5.9462    0.0000 C   0  0  0  0  0  0  0  0  0  0  0  0
   14.5670   -5.9462    0.0000 C   0  0  0  0  0  2  0  0  0  0  0  0
   12.3170   -7.2452    0.0000 C   0  0  0  0  0  3  0  0  0  0  0  0
   10.8170   -7.2452    0.0000 C   0  0  0  0  0  3  0  0  0  0  0  0
   10.0670   -8.5442    0.0000 C   0  0  0  0  0  3  0  0  0  0  0  0
    8.5670   -8.5442    0.0000 C   0  0  0  0  0  0  0  0  0  0  0  0
    7.8170   -7.2452    0.0000 C   0  0  0  0  0  2  0  0  0  0  0  0
    7.8170   -9.8433    0.0000 C   0  0  0  0  0  0  0  0  0  0  0  0
    6.3170   -9.8433    0.0000 C   0  0  0  0  0  0  0  0  0  0  0  0
    5.5670  -11.1423    0.0000 C   0  0  0  0  0  2  0  0  0  0  0  0
    5.5670   -8.5442    0.0000 C   0  0  0  0  0  3  0  0  0  0  0  0
    4.0670   -8.5442    0.0000 C   0  0  0  0  0  0  0  0  0  0  0  0
    3.3170   -7.2452    0.0000 C   0  0  0  0  0  0  0  0  0  0  0  0
    1.8170   -7.2452    0.0000 C   0  0  0  0  0  0  0  0  0  0  0  0
    1.0670   -5.9462    0.0000 C   0  0  0  0  0  0  0  0  0  0  0  0
    1.0670   -8.5442    0.0000 C   0  0  0  0  0  0  0  0  0  0  0  0
   -0.4330   -8.5442    0.0000 C   0  0  0  0  0  0  0  0  0  0  0  0
   -1.1830   -9.8433    0.0000 C   0  0  0  0  0  0  0  0  0  0  0  0
   -2.6830   -9.8433    0.0000 C   0  0  0  0  0  0  0  0  0  0  0  0
   -3.4330   -8.5442    0.0000 C   0  0  0  0  0  0  0  0  0  0  0  0
   -4.9330   -8.5442    0.0000 N   0  0  0  0  0  0  0  0  0  0  0  0
   -5.6830   -7.2452    0.0000 C   0  0  0  0  0  0  0  0  0  0  0  0
   -7.1830   -7.2452    0.0000 C   0  0  0  0  0  2  0  0  0  0  0  0
   -3.4330  -11.1423    0.0000 C   0  0  0  0  0  0  0  0  0  0  0  0
   -4.9330  -11.1423    0.0000 C   0  0  0  0  0  2  0  0  0  0  0  0
   -2.6830  -12.4413    0.0000 C   0  0  0  0  0  3  0  0  0  0  0  0
   -3.4330  -13.7404    0.0000 C   0  0  0  0  0  0  0  0  0  0  0  0
   -2.6830  -15.0394    0.0000 C   0  0  0  0  0  2  0  0  0  0  0  0
   -4.9330  -13.7404    0.0000 C   0  0  0  0  0  2  0  0  0  0  0  0
  1  2  1  0
  2  3  1  0
  2  4  1  0
  4  5  1  0
  5  6  1  0
  6  7  1  0
  7  8  1  1
  7  9  1  0
  9 10  1  0
 10 11  1  0
 11 12  1  0
 12 13  1  6
 12 14  1  0
 14 15  1  0
 16 15  1  6
 16 17  1  0
 17 18  1  0
 18 19  1  0
 19 20  1  0
 20 21  1  0
 16 22  1  0
 22 23  1  0
 23 24  1  0
 24 25  1  1
 24 26  1  0
 26 27  1  0
 28 27  1  1
 28 29  1  0
 29 30  1  6
 29 31  1  0
 31 32  1  1
 32 33  1  6
 32 34  1  0
 34 35  1  6
 34 36  1  0
 36 37  1  0
 37 38  1  0
 38 39  1  6
 38 40  1  0
 40 41  1  0
 41 42  1  0
 42 43  1  6
 42 44  1  0
 44 45  1  6
 44 46  1  0
 46 47  1  0
 47 48  1  1
 47 49  1  0
 49 50  1  0
 50 51  1  0
 51 52  1  1
 51 53  1  0
 53 54  1  0
 54 55  1  0
 55 56  1  0
 56 57  1  6
 56 58  1  0
 58 59  1  0
 59 60  1  1
 59 61  1  0
 61 62  1  0
 62 63  1  0
 63 64  1  0
 64 65  1  0
 64 66  1  0
 66 67  1  0
 67 68  1  0
 69 68  1  6
 69 70  1  0
 70 71  1  0
 71 72  1  0
 72 73  1  0
 69 74  1  0
 74 75  1  6
 74 76  1  0
 76 77  1  0
 77 78  1  0
 77 79  1  0
 31 28  1  0
M  RAD  8   9   2  14   2  22   2  25   3  30   3  35   3  36   2  40   2
M  RAD  8  43   3  45   3  48   3  52   3  53   2  54   2  55   2  57   3
M  RAD  7  60   3  61   2  73   3  75   3  76   2  78   3  79   3
M  END
>  <fragInfo>  (1) 
28 29 30 31
1 2 3
4
5
6
7 8
9
10
11
12 13
14
15
16
17
18
19
20 21
22
23
24 25
26
27
32 33
34 35
36
37
38 39
40
41
42 43
44 45
46
47 48
49
50
51 52
53
54
55
56 57
58
59 60
61
62
63
64 65
66
67
68
69
70
71
72 73
74 75
76
77 78 79


>  <torsionInfo>  (1) 
27 28 21 0
31 32 0 22
2 4 1 2
4 5 2 3
5 6 3 4
6 7 4 5
7 9 5 6
9 10 6 7
10 11 7 8
11 12 8 9
12 14 9 10
14 15 10 11
15 16 11 12
16 17 12 13
16 22 12 17
17 18 13 14
18 19 14 15
19 20 15 16
22 23 17 18
23 24 18 19
24 26 19 20
26 27 20 21
32 34 22 23
34 36 23 24
36 37 24 25
37 38 25 26
38 40 26 27
40 41 27 28
41 42 28 29
42 44 29 30
44 46 30 31
46 47 31 32
47 49 32 33
49 50 33 34
50 51 34 35
51 53 35 36
53 54 36 37
54 55 37 38
55 56 38 39
56 58 39 40
58 59 40 41
59 61 41 42
61 62 42 43
62 63 43 44
63 64 44 45
64 66 45 46
66 67 46 47
67 68 47 48
68 69 48 49
69 70 49 50
69 74 49 53
70 71 50 51
71 72 51 52
74 76 53 54
76 77 54 55


>  <atomInfo>  (1) 
1  -0.0627736C 
2  -0.0471324C 
3  -0.0627736C 
4  -0.0509643C 
5  -0.0527983C 
6  -0.0504266C 
7  -0.0411603C 
8  -0.0622342C 
9  -0.0357403C 
10 -0.0496542C 
11 -0.0501520C 
12 -0.0411397C 
13 -0.0622339C 
14 -0.0354663C 
15 -0.0467842C 
16 -0.0379261C 
17 -0.0500763C 
18 -0.0508493C 
19 -0.0298670C 
20 0.04305258C 
21 -0.3963765OA
22 -0.0328172C 
23 -0.0210251C 
24 0.08284079C 
25 -0.0014468C 
26 -0.2978955OA
27 -0.1985587NA
28 0.03904537C 
29 -0.0152929C 
30 -0.0297377C 
31 -0.0158221C 
32 -0.0361121C 
33 -0.0618868C 
34 -0.0319711C 
35 -0.0312181C 
36 -0.0346315C 
37 -0.0470178C 
38 -0.0408656C 
39 -0.0622235C 
40 -0.0354450C 
41 -0.0464992C 
42 -0.0345913C 
43 -0.0314936C 
44 -0.0346009C 
45 -0.0314938C 
46 -0.0467429C 
47 -0.0377193C 
48 -0.0317896C 
49 -0.0498664C 
50 -0.0496012C 
51 -0.0345895C 
52 -0.0314935C 
53 -0.0314827C 
54 -0.0312082C 
55 -0.0314722C 
56 -0.0343156C 
57 -0.0314828C 
58 -0.0464574C 
59 -0.0346115C 
60 -0.0314940C 
61 -0.0351605C 
62 -0.0496433C 
63 -0.0504266C 
64 -0.0442694C 
65 -0.0625095C 
66 -0.0506998C 
67 -0.0527305C 
68 -0.0489383C 
69 -0.0254457C 
70 -0.0017534C 
71 -0.3161470NA
72 -0.0013914C 
73 -0.0201106C 
74 -0.0305474C 
75 -0.0311591C 
76 -0.0311596C 
77 -0.0311860C 
78 -0.0311864C 
79 -0.0311864C 


>  <filename>  (1) 
ligand023

$$$$
