
     RDKit          2D

 60 59  0  0  0  0  0  0  0  0999 V2000
    0.0000    0.0000    0.0000 C   0  0  0  0  0  0  0  0  0  0  0  0
    1.2990    0.7500    0.0000 C   0  0  0  0  0  0  0  0  0  0  0  0
    2.5981   -0.0000    0.0000 C   0  0  0  0  0  0  0  0  0  0  0  0
    1.2990    2.2500    0.0000 C   0  0  0  0  0  0  0  0  0  0  0  0
    2.5981    3.0000    0.0000 C   0  0  0  0  0  0  0  0  0  0  0  0
    2.5981    4.5000    0.0000 C   0  0  0  0  0  3  0  0  0  0  0  0
    3.8971    5.2500    0.0000 C   0  0  0  0  0  0  0  0  0  0  0  0
    3.8971    6.7500    0.0000 C   0  0  0  0  0  0  0  0  0  0  0  0
    5.1962    4.5000    0.0000 C   0  0  0  0  0  0  0  0  0  0  0  0
    6.4952    5.2500    0.0000 C   0  0  0  0  0  2  0  0  0  0  0  0
    5.1962    3.0000    0.0000 C   0  0  0  0  0  3  0  0  0  0  0  0
    6.4952    2.2500    0.0000 C   0  0  0  0  0  3  0  0  0  0  0  0
    6.4952    0.7500    0.0000 C   0  0  0  0  0  0  0  0  0  0  0  0
    7.7942    0.0000    0.0000 C   0  0  0  0  0  3  0  0  0  0  0  0
    7.7942   -1.5000    0.0000 C   0  0  0  0  0  3  0  0  0  0  0  0
    9.0933   -2.2500    0.0000 C   0  0  0  0  0  0  0  0  0  0  0  0
    9.0933   -3.7500    0.0000 C   0  0  0  0  0  0  0  0  0  0  0  0
   10.3923   -4.5000    0.0000 C   0  0  0  0  0  0  0  0  0  0  0  0
   10.3923   -6.0000    0.0000 C   0  0  0  0  0  0  0  0  0  0  0  0
   11.6913   -3.7500    0.0000 C   0  0  0  0  0  0  0  0  0  0  0  0
   12.9904   -4.5000    0.0000 O   0  0  0  0  0  0  0  0  0  0  0  0
   14.2894   -3.7500    0.0000 C   0  0  0  0  0  0  0  0  0  0  0  0
   15.5885   -4.5000    0.0000 C   0  0  0  0  0  0  0  0  0  0  0  0
   16.8875   -3.7500    0.0000 C   0  0  0  0  0  0  0  0  0  0  0  0
   18.1865   -4.5000    0.0000 C   0  0  0  0  0  0  0  0  0  0  0  0
   16.8875   -2.2500    0.0000 C   0  0  0  0  0  3  0  0  0  0  0  0
   18.1865   -1.5000    0.0000 C   0  0  0  0  0  0  0  0  0  0  0  0
   18.1865    0.0000    0.0000 C   0  0  0  0  0  0  0  0  0  0  0  0
   19.4856    0.7500    0.0000 C   0  0  0  0  0  0  0  0  0  0  0  0
   19.4856    2.2500    0.0000 C   0  0  0  0  0  0  0  0  0  0  0  0
   20.7846    3.0000    0.0000 S   0  0  0  0  0  0  0  0  0  0  0  0
   20.7846    4.5000    0.0000 C   0  0  0  0  0  3  0  0  0  0  0  0
   22.0836    5.2500    0.0000 C   0  0  0  0  0  0  0  0  0  0  0  0
   22.0836    6.7500    0.0000 C   0  0  0  0  0  0  0  0  0  0  0  0
   23.3827    7.5000    0.0000 C   0  0  0  0  0  0  0  0  0  0  0  0
   23.3827    9.0000    0.0000 C   0  0  0  0  0  3  0  0  0  0  0  0
   24.6817    9.7500    0.0000 C   0  0  0  0  0  0  0  0  0  0  0  0
   24.6817   11.2500    0.0000 C   0  0  0  0  0  3  0  0  0  0  0  0
   25.9808   12.0000    0.0000 C   0  0  0  0  0  3  0  0  0  0  0  0
   25.9808   13.5000    0.0000 C   0  0  0  0  0  3  0  0  0  0  0  0
   27.2798   14.2500    0.0000 C   0  0  0  0  0  0  0  0  0  0  0  0
   27.2798   15.7500    0.0000 C   0  0  0  0  0  0  0  0  0  0  0  0
   28.5788   16.5000    0.0000 C   0  0  0  0  0  0  0  0  0  0  0  0
   28.5788   18.0000    0.0000 C   0  0  0  0  0  3  0  0  0  0  0  0
   29.8779   18.7500    0.0000 C   0  0  0  0  0  0  0  0  0  0  0  0
   29.8779   20.2500    0.0000 C   0  0  0  0  0  3  0  0  0  0  0  0
   31.1769   21.0000    0.0000 C   0  0  0  0  0  0  0  0  0  0  0  0
   31.1769   22.5000    0.0000 C   0  0  0  0  0  0  0  0  0  0  0  0
   32.4760   23.2500    0.0000 C   0  0  0  0  0  0  0  0  0  0  0  0
   32.4760   24.7500    0.0000 C   0  0  0  0  0  2  0  0  0  0  0  0
   33.7750   22.5000    0.0000 C   0  0  0  0  0  0  0  0  0  0  0  0
   35.0740   23.2500    0.0000 C   0  0  0  0  0  0  0  0  0  0  0  0
   36.3731   22.5000    0.0000 C   0  0  0  0  0  0  0  0  0  0  0  0
   37.6721   23.2500    0.0000 C   0  0  0  0  0  3  0  0  0  0  0  0
   38.9711   22.5000    0.0000 C   0  0  0  0  0  3  0  0  0  0  0  0
   40.2702   23.2500    0.0000 C   0  0  0  0  0  3  0  0  0  0  0  0
   41.5692   22.5000    0.0000 C   0  0  0  0  0  2  0  0  0  0  0  0
   42.8683   23.2500    0.0000 C   0  0  0  0  0  0  0  0  0  0  0  0
   44.1673   22.5000    0.0000 C   0  0  0  0  0  0  0  0  0  0  0  0
   45.4663   23.2500    0.0000 Cl  0  0  0  0  0  0  0  0  0  0  0  0
  1  2  1  0
  2  3  1  0
  2  4  1  0
  4  5  1  0
  5  6  1  0
  6  7  1  0
  7  8  1  1
  7  9  1  0
  9 10  1  6
  9 11  1  0
 11 12  1  0
 12 13  1  0
 13 14  1  0
 14 15  1  0
 15 16  1  0
 16 17  2  3
 17 18  1  0
 18 19  1  0
 18 20  1  0
 20 21  1  0
 21 22  1  0
 22 23  1  0
 23 24  1  0
 24 25  1  0
 24 26  1  0
 26 27  1  0
 27 28  1  0
 28 29  1  0
 29 30  1  0
 30 31  1  0
 31 32  1  0
 32 33  1  0
 33 34  2  3
 34 35  1  0
 35 36  1  0
 36 37  1  0
 37 38  1  0
 38 39  1  0
 39 40  1  0
 40 41  1  0
 41 42  1  0
 42 43  2  3
 43 44  1  0
 44 45  1  0
 45 46  1  0
 46 47  1  0
 47 48  1  0
 48 49  1  0
 49 50  1  1
 49 51  1  0
 51 52  1  0
 52 53  1  0
 53 54  1  0
 54 55  1  0
 55 56  1  0
 56 57  1  0
 57 58  1  0
 58 59  1  0
 59 60  1  0
M  RAD  8   6   2  10   3  11   2  12   2  14   2  15   2  26   2  32   2
M  RAD  8  36   2  38   2  39   2  40   2  44   2  46   2  50   3  54   2
M  RAD  3  55   2  56   2  57   3
M  END
>  <fragInfo>  (1) 
1 2 3
4
5
6
7 8
9 10
11
12
13
14
15
16 17
18 19
20
21
22
23
24 25
26
27
28
29
30
31
32
33 34
35
36
37
38
39
40
41
42 43
44
45
46
47
48
49 50
51
52
53
54
55
56
57
58
59 60


>  <torsionInfo>  (1) 
2 4 0 1
4 5 1 2
5 6 2 3
6 7 3 4
7 9 4 5
9 11 5 6
11 12 6 7
12 13 7 8
13 14 8 9
14 15 9 10
15 16 10 11
17 18 11 12
18 20 12 13
20 21 13 14
21 22 14 15
22 23 15 16
23 24 16 17
24 26 17 18
26 27 18 19
27 28 19 20
28 29 20 21
29 30 21 22
30 31 22 23
31 32 23 24
32 33 24 25
34 35 25 26
35 36 26 27
36 37 27 28
37 38 28 29
38 39 29 30
39 40 30 31
40 41 31 32
41 42 32 33
43 44 33 34
44 45 34 35
45 46 35 36
46 47 36 37
47 48 37 38
48 49 38 39
49 51 39 40
51 52 40 41
52 53 41 42
53 54 42 43
54 55 43 44
55 56 44 45
56 57 45 46
57 58 46 47
58 59 47 48


>  <atomInfo>  (1) 
1  -0.0627734C 
2  -0.0471220C 
3  -0.0627734C 
4  -0.0506900C 
5  -0.0496639C 
6  -0.0354449C 
7  -0.0377454C 
8  -0.0619477C 
9  -0.0317570C 
10 -0.0312083C 
11 -0.0315038C 
12 -0.0345792C 
13 -0.0461578C 
14 -0.0308199C 
15 -0.0136311C 
16 -0.0841806C 
17 -0.0830912C 
18 -0.0026406C 
19 -0.0567932C 
20 0.05256282C 
21 -0.3808410OA
22 0.04684742C 
23 -0.0267417C 
24 -0.0389722C 
25 -0.0621495C 
26 -0.0356641C 
27 -0.0498875C 
28 -0.0522358C 
29 -0.0441183C 
30 -0.0061075C 
31 -0.1529166SA
32 0.03807350C 
33 -0.0741374C 
34 -0.0870985C 
35 -0.0318942C 
36 -0.0345290C 
37 -0.0464569C 
38 -0.0345894C 
39 -0.0314716C 
40 -0.0311367C 
41 -0.0316388C 
42 -0.0879412C 
43 -0.0848128C 
44 -0.0167675C 
45 -0.0432759C 
46 -0.0379713C 
47 -0.0498867C 
48 -0.0498875C 
49 -0.0380036C 
50 -0.0318005C 
51 -0.0501511C 
52 -0.0527468C 
53 -0.0498758C 
54 -0.0348738C 
55 -0.0311843C 
56 -0.0274760C 
57 -0.0121262C 
58 -0.0324932C 
59 0.02287710C 
60 -0.1266939Cl


>  <filename>  (1) 
ligand061

$$$$
