
     RDKit          3D

 25 26  0  0  0  0  0  0  0  0999 V2000
    2.8503   -2.9486    1.5807 C   0  0  0  0  0  0  0  0  0  0  0  0
    3.5892   -1.9399    0.7461 C   0  0  0  0  0  3  0  0  0  0  0  0
    2.6663   -1.2194   -0.2303 C   0  0  2  0  0  0  0  0  0  0  0  0
    3.5336   -0.1604   -0.9019 C   0  0  2  0  0  0  0  0  0  0  0  0
    4.4977   -0.7392   -1.7056 O   0  0  0  0  0  0  0  0  0  0  0  0
    4.2495    0.5833    0.2008 C   0  0  0  0  0  0  0  0  0  0  0  0
    3.6350    1.7752    0.5381 O   0  0  0  0  0  0  0  0  0  0  0  0
    2.4181    1.6106    1.1804 C   0  0  0  0  0  3  0  0  0  0  0  0
    1.4826    0.9424    0.2012 C   0  0  1  0  0  0  0  0  0  0  0  0
    1.7856    1.2717   -1.1071 O   0  0  0  0  0  0  0  0  0  0  0  0
    1.5271   -0.5361    0.4717 C   0  0  1  0  0  0  0  0  0  0  0  0
    0.2313   -1.0796    0.1054 N   0  0  0  0  0  0  0  0  0  0  0  0
   -0.7643   -0.3341    0.8695 C   0  0  1  0  0  0  0  0  0  0  0  0
   -0.8992    1.0882    0.3947 C   0  0  0  0  0  0  0  0  0  0  0  0
   -2.0696    1.7038    1.1298 C   0  0  0  0  0  3  0  0  0  0  0  0
   -1.7316    2.9416    1.6630 O   0  0  0  0  0  0  0  0  0  0  0  0
   -3.2820    1.8316    0.2485 C   0  0  1  0  0  0  0  0  0  0  0  0
   -2.9671    2.4637   -0.9544 O   0  0  0  0  0  0  0  0  0  0  0  0
   -3.9434    0.4801    0.0091 C   0  0  1  0  0  0  0  0  0  0  0  0
   -4.8140    0.6105   -1.0725 O   0  0  0  0  0  0  0  0  0  0  0  0
   -2.8890   -0.5526   -0.3646 C   0  0  2  0  0  0  0  0  0  0  0  0
   -3.5041   -1.6199   -1.0237 O   0  0  0  0  0  0  0  0  0  0  0  0
   -2.1175   -0.9912    0.8364 C   0  0  1  0  0  0  0  0  0  0  0  0
   -2.0266   -2.3720    0.8575 O   0  0  0  0  0  0  0  0  0  0  0  0
   -1.4581   -2.8097   -0.2907 N   0  0  0  0  0  0  0  0  0  0  0  0
  1  2  1  0
  3  2  1  1
  3  4  1  0
  4  5  1  6
  4  6  1  0
  6  7  1  0
  7  8  1  0
  8  9  1  0
  9 10  1  6
  9 11  1  0
 11 12  1  6
 13 12  1  6
 13 14  1  0
 14 15  1  0
 15 16  1  0
 15 17  1  0
 17 18  1  6
 17 19  1  0
 19 20  1  6
 19 21  1  0
 21 22  1  1
 21 23  1  0
 23 24  1  6
 24 25  1  0
 11  3  1  0
 23 13  1  0
M  RAD  3   2   2   8   2  15   2
M  END
>  <fragInfo>  (1) 
13 14 15 16 17 18 19 20 21 22 23
1 2
3 4 5 6 7 8 9 10 11
12
24 25


>  <torsionInfo>  (1) 
12 13 3 0
23 24 0 4
2 3 1 2
11 12 2 3


>  <atomInfo>  (1) 
1  -0.0618184C 
2  -0.0342823C 
3  0.00788392C 
4  0.08199621C 
5  -0.3903615OA
6  0.07355049C 
7  -0.3699371OA
8  0.11371418C 
9  0.09844659C 
10 -0.3886642OA
11 0.04144135C 
12 -0.3053239NA
13 0.04102135C 
14 -0.0002951C 
15 0.12591844C 
16 -0.3838736OA
17 0.11414417C 
18 -0.3871773OA
19 0.11133733C 
20 -0.3874842OA
21 0.11216689C 
22 -0.3874475OA
23 0.12247937C 
24 -0.2968278OA
25 -0.2153282NA


>  <filename>  (1) 
ligand040

$$$$
