
     RDKit          3D

 27 27  0  0  0  0  0  0  0  0999 V2000
   -2.3357   -3.7915   -0.7530 C   0  0  0  0  0  0  0  0  0  0  0  0
   -1.6392   -3.7818    0.4665 O   0  0  0  0  0  0  0  0  0  0  0  0
   -2.0957   -3.2743    1.6475 C   0  0  0  0  0  0  0  0  0  0  0  0
   -1.9938   -1.9785    1.8762 C   0  0  0  0  0  0  0  0  0  0  0  0
   -1.4008   -1.0883    0.8836 C   0  0  0  0  0  0  0  0  0  0  0  0
   -1.2869    0.2121    1.0865 C   0  0  0  0  0  0  0  0  0  0  0  0
   -0.6774    1.0584    0.0424 C   0  0  0  0  0  0  0  0  0  0  0  0
   -0.2100    0.3699   -1.1797 C   0  0  0  0  0  0  0  0  0  0  0  0
    0.8206   -0.6175   -0.8584 C   0  0  0  0  0  0  0  0  0  0  0  0
    2.0935   -0.3026   -0.3351 C   0  0  0  0  0  0  0  0  0  0  0  0
    2.5869    0.8611   -0.0572 C   0  0  0  0  0  0  0  0  0  0  0  0
    3.9614    0.9387    0.4913 C   0  0  0  0  0  0  0  0  0  0  0  0
    4.5757    2.0531    0.7965 C   0  0  0  0  0  0  0  0  0  0  0  0
    5.8799    2.0794    1.3143 O   0  0  0  0  0  0  0  0  0  0  0  0
    3.8630    3.3033    0.5840 C   0  0  0  0  0  0  0  0  0  0  0  0
    2.6530    3.3048    0.1050 C   0  0  0  0  0  0  0  0  0  0  0  0
    1.8629    2.1265   -0.2734 C   0  0  0  0  0  0  0  0  0  0  0  0
    0.4935   -1.9004   -1.0959 C   0  0  0  0  0  0  0  0  0  0  0  0
    1.4641   -2.9938   -0.8072 C   0  0  0  0  0  0  0  0  0  0  0  0
    1.7473   -3.7229   -2.0857 C   0  0  0  0  0  0  0  0  0  0  0  0
    0.4788   -4.3199   -2.6650 C   0  0  0  0  0  0  0  0  0  0  0  0
   -1.7145    0.8762    2.3272 C   0  0  0  0  0  0  0  0  0  0  0  0
   -2.7781    1.8228    2.2838 C   0  0  0  0  0  0  0  0  0  0  0  0
   -3.4932    2.1350    1.2599 C   0  0  0  0  0  0  0  0  0  0  0  0
   -3.4227    1.6332   -0.0785 C   0  0  0  0  0  0  0  0  0  0  0  0
   -4.1778    1.9903   -1.0754 C   0  0  0  0  0  0  0  0  0  0  0  0
   -5.2548    3.0067   -0.9481 C   0  0  0  0  0  2  0  0  0  0  0  0
  1  2  1  0
  2  3  1  0
  3  4  2  3
  4  5  1  0
  5  6  2  3
  6  7  1  0
  7  8  1  0
  8  9  1  0
  9 10  1  0
 10 11  2  3
 11 12  1  0
 12 13  2  0
 13 14  1  0
 13 15  1  0
 15 16  2  0
 16 17  1  0
  9 18  2  3
 18 19  1  0
 19 20  1  0
 20 21  1  0
  6 22  1  0
 22 23  1  0
 23 24  2  3
 24 25  1  0
 25 26  2  3
 26 27  1  0
 17 11  1  0
M  RAD  1  27   3
M  END
>  <fragInfo>  (1) 
10 11 12 13 14 15 16 17
1 2
3 4
5 6
7
8
9 18
19
20 21
22
23 24
25 26 27


>  <torsionInfo>  (1) 
9 10 6 0
2 3 1 2
4 5 2 3
6 7 3 4
6 22 3 9
7 8 4 5
8 9 5 6
18 19 6 7
19 20 7 8
22 23 9 10
24 25 10 11


>  <atomInfo>  (1) 
1  0.07660055C 
2  -0.5043678OA
3  0.08240877C 
4  -0.0275871C 
5  -0.0596933C 
6  -0.0659921C 
7  -0.0273513C 
8  -0.0244314C 
9  -0.0514067C 
10 -0.0556779C 
11 -0.0402996C 
12 -0.0167007C 
13 0.11505511C 
14 -0.5079679OA
15 -0.0238828C 
16 -0.0764641C 
17 -0.0091511C 
18 -0.0813052C 
19 -0.0347525C 
20 -0.0526683C 
21 -0.0650867C 
22 -0.0132434C 
23 -0.0804717C 
24 -0.0662592C 
25 -0.0662578C 
26 -0.0802102C 
27 -0.0092469C 


>  <filename>  (1) 
ligand033

$$$$
