
     RDKit          3D

 26 29  0  0  0  0  0  0  0  0999 V2000
    2.7326    0.6338    2.3940 O   0  0  0  0  0  0  0  0  0  0  0  0
    2.3067    0.2437    1.2448 C   0  0  0  0  0  0  0  0  0  0  0  0
    3.2888    0.2564    0.1728 C   0  0  0  0  0  0  0  0  0  0  0  0
    4.5962    0.6698    0.4087 C   0  0  0  0  0  0  0  0  0  0  0  0
    5.4989    0.6685   -0.6313 C   0  0  0  0  0  0  0  0  0  0  0  0
    5.1334    0.2668   -1.8979 C   0  0  0  0  0  0  0  0  0  0  0  0
    3.8268   -0.1345   -2.0844 C   0  0  0  0  0  0  0  0  0  0  0  0
    2.8982   -0.1491   -1.0812 C   0  0  0  0  0  0  0  0  0  0  0  0
    1.5572   -0.5533   -1.2406 N   0  0  0  0  0  0  0  0  0  0  0  0
    0.6577   -0.5820   -0.3299 C   0  0  0  0  0  0  0  0  0  0  0  0
   -0.6884   -1.0509   -0.7549 C   0  0  0  0  0  0  0  0  0  0  0  0
   -1.7949   -0.7456   -0.0000 C   0  0  0  0  0  0  0  0  0  0  0  0
   -3.0332   -1.1721   -0.3830 C   0  0  0  0  0  0  0  0  0  0  0  0
   -3.1522   -1.9151   -1.5422 C   0  0  0  0  0  0  0  0  0  0  0  0
   -4.3929   -2.3814   -1.9883 O   0  0  0  0  0  0  0  0  0  0  0  0
   -2.0584   -2.2289   -2.3075 C   0  0  0  0  0  0  0  0  0  0  0  0
   -0.8220   -1.7901   -1.9043 C   0  0  0  0  0  0  0  0  0  0  0  0
    0.9492   -0.1805    1.0205 C   0  0  2  0  0  0  0  0  0  0  0  0
   -0.1046    0.6494    1.6938 C   0  0  0  0  0  0  0  0  0  0  0  0
    0.0874    2.0903    1.2043 C   0  0  0  0  0  0  0  0  0  0  0  0
   -0.6969    2.3162    0.0609 O   0  0  0  0  0  0  0  0  0  0  0  0
   -1.8971    2.8938    0.5298 C   0  0  0  0  0  0  0  0  0  0  0  0
   -2.9806    1.8890    0.4351 C   0  0  0  0  0  0  0  0  0  0  0  0
   -3.2837    1.0651    1.4426 C   0  0  0  0  0  0  0  0  0  0  0  0
   -4.3762    0.1296    1.1993 C   0  0  0  0  0  0  0  0  0  0  0  0
   -4.2520   -0.8887    0.3639 C   0  0  0  0  0  0  0  0  0  0  0  0
  1  2  2  0
  2  3  1  0
  3  4  2  0
  4  5  1  0
  5  6  2  0
  6  7  1  0
  7  8  2  0
  8  9  1  0
  9 10  2  0
 10 11  1  0
 11 12  2  0
 12 13  1  0
 13 14  2  0
 14 15  1  0
 14 16  1  0
 16 17  2  0
 10 18  1  0
 18 19  1  6
 19 20  1  0
 20 21  1  0
 21 22  1  0
 22 23  1  0
 23 24  2  3
 24 25  1  0
 25 26  2  3
 18  2  1  0
  8  3  1  0
 17 11  1  0
 26 13  1  0
M  END
>  <fragInfo>  (1) 
1 2 3 4 5 6 7 8 9 10 11 12 13 14 15 16 17 18 19 20 21 22 23 24 25 26


>  <torsionInfo>  (1) 


>  <atomInfo>  (1) 
1  -0.2933449OA
2  0.17367133C 
3  0.04392649A 
4  -0.0492020A 
5  -0.0613892A 
6  -0.0600744A 
7  -0.0356695A 
8  0.07412906A 
9  -0.2512983NA
10 0.05925490C 
11 -0.0024346A 
12 -0.0421361A 
13 0.01690675A 
14 0.12233922A 
15 -0.5073337OA
16 -0.0189373A 
17 -0.0494105A 
18 0.06754325C 
19 -0.0137535C 
20 0.04806869C 
21 -0.3773502OA
22 0.06499906C 
23 -0.0589959C 
24 -0.0639729C 
25 -0.0617688C 
26 -0.0512605C 


>  <filename>  (1) 
ligand062

$$$$
