
     RDKit          2D

 87 87  0  0  0  0  0  0  0  0999 V2000
    3.0000    0.0000    0.0000 C   0  0  0  0  0  0  0  0  0  0  0  0
    1.5000    0.0000    0.0000 C   0  0  0  0  0  0  0  0  0  0  0  0
    0.7500   -1.2990    0.0000 C   0  0  0  0  0  0  0  0  0  0  0  0
   -0.7500   -1.2990    0.0000 C   0  0  0  0  0  0  0  0  0  0  0  0
   -1.5000   -2.5981    0.0000 O   0  0  0  0  0  0  0  0  0  0  0  0
   -1.5000    0.0000    0.0000 C   0  0  0  0  0  0  0  0  0  0  0  0
   -3.0000    0.0000    0.0000 O   0  0  0  0  0  0  0  0  0  0  0  0
   -0.7500    1.2990    0.0000 C   0  0  0  0  0  0  0  0  0  0  0  0
   -1.5000    2.5981    0.0000 O   0  0  0  0  0  0  0  0  0  0  0  0
    0.7500    1.2990    0.0000 C   0  0  0  0  0  0  0  0  0  0  0  0
    1.5000    2.5981    0.0000 N   0  0  0  0  0  0  0  0  0  0  0  0
    0.7500    3.8971    0.0000 C   0  0  0  0  0  3  0  0  0  0  0  0
    1.5000    5.1962    0.0000 C   0  0  0  0  0  0  0  0  0  0  0  0
    0.7500    6.4952    0.0000 C   0  0  0  0  0  0  0  0  0  0  0  0
    3.0000    5.1962    0.0000 O   0  0  0  0  0  0  0  0  0  0  0  0
    3.7500    6.4952    0.0000 C   0  0  0  0  0  0  0  0  0  0  0  0
    3.0000    7.7942    0.0000 O   0  0  0  0  0  0  0  0  0  0  0  0
    5.2500    6.4952    0.0000 C   0  0  0  0  0  0  0  0  0  0  0  0
    6.0000    7.7942    0.0000 C   0  0  0  0  0  0  0  0  0  0  0  0
    6.0000    5.1962    0.0000 C   0  0  0  0  0  0  0  0  0  0  0  0
    5.2500    3.8971    0.0000 O   0  0  0  0  0  0  0  0  0  0  0  0
    7.5000    5.1962    0.0000 C   0  0  0  0  0  3  0  0  0  0  0  0
    8.2500    3.8971    0.0000 C   0  0  0  0  0  3  0  0  0  0  0  0
    9.7500    3.8971    0.0000 C   0  0  0  0  0  0  0  0  0  0  0  0
   10.5000    2.5981    0.0000 O   0  0  0  0  0  0  0  0  0  0  0  0
   12.0000    2.5981    0.0000 O   0  0  0  0  0  0  0  0  0  0  0  0
   12.7500    1.2990    0.0000 O   0  0  0  0  0  0  0  0  0  0  0  0
   14.2500    1.2990    0.0000 C   0  0  0  0  0  3  0  0  0  0  0  0
   15.0000   -0.0000    0.0000 C   0  0  0  0  0  0  0  0  0  0  0  0
   16.5000   -0.0000    0.0000 O   0  0  0  0  0  0  0  0  0  0  0  0
   14.2500   -1.2990    0.0000 O   0  0  0  0  0  0  0  0  0  0  0  0
   15.0000   -2.5981    0.0000 C   0  0  0  0  0  3  0  0  0  0  0  0
   14.2500   -3.8971    0.0000 C   0  0  0  0  0  0  0  0  0  0  0  0
   12.7500   -3.8971    0.0000 O   0  0  0  0  0  0  0  0  0  0  0  0
   15.0000   -5.1962    0.0000 C   0  0  0  0  0  3  0  0  0  0  0  0
   14.2500   -6.4952    0.0000 C   0  0  0  0  0  0  0  0  0  0  0  0
   15.0000   -7.7942    0.0000 N   0  0  0  0  0  0  0  0  0  0  0  0
   14.2500   -9.0933    0.0000 C   0  0  0  0  0  0  0  0  0  0  0  0
   12.7500   -9.0933    0.0000 O   0  0  0  0  0  0  0  0  0  0  0  0
   15.0000  -10.3923    0.0000 C   0  0  0  0  0  3  0  0  0  0  0  0
   14.2500  -11.6913    0.0000 C   0  0  0  0  0  3  0  0  0  0  0  0
   15.0000  -12.9904    0.0000 C   0  0  0  0  0  0  0  0  0  0  0  0
   15.7500  -14.2894    0.0000 C   0  0  0  0  0  0  0  0  0  0  0  0
   16.2990  -12.2404    0.0000 C   0  0  0  0  0  3  0  0  0  0  0  0
   17.5981  -12.9904    0.0000 C   0  0  0  0  0  0  0  0  0  0  0  0
   18.8971  -12.2404    0.0000 C   0  0  0  0  0  0  0  0  0  0  0  0
   20.1962  -12.9904    0.0000 C   0  0  0  0  0  0  0  0  0  0  0  0
   20.1962  -14.4904    0.0000 O   0  0  0  0  0  0  0  0  0  0  0  0
   21.4952  -12.2404    0.0000 C   0  0  0  0  0  0  0  0  0  0  0  0
   22.7942  -12.9904    0.0000 C   0  0  0  0  0  0  0  0  0  0  0  0
   24.0933  -12.2404    0.0000 O   0  0  0  0  0  0  0  0  0  0  0  0
   25.3923  -12.9904    0.0000 C   0  0  0  0  0  3  0  0  0  0  0  0
   26.6913  -12.2404    0.0000 C   0  0  0  0  0  0  0  0  0  0  0  0
   13.7010  -13.7404    0.0000 O   0  0  0  0  0  0  0  0  0  0  0  0
   13.7010  -15.2404    0.0000 C   0  0  0  0  0  0  0  0  0  0  0  0
   15.0000  -15.9904    0.0000 O   0  0  0  0  0  0  0  0  0  0  0  0
   12.4019  -15.9904    0.0000 C   0  0  0  0  0  3  0  0  0  0  0  0
   12.4019  -17.4904    0.0000 C   0  0  0  0  0  0  0  0  0  0  0  0
   11.1029  -18.2404    0.0000 C   0  0  0  0  0  0  0  0  0  0  0  0
   11.1029  -19.7404    0.0000 C   0  0  0  0  0  0  0  0  0  0  0  0
    9.8038  -20.4904    0.0000 C   0  0  0  0  0  0  0  0  0  0  0  0
    9.8038  -21.9904    0.0000 C   0  0  0  0  0  0  0  0  0  0  0  0
    8.5048  -22.7404    0.0000 C   0  0  0  0  0  3  0  0  0  0  0  0
    8.5048  -24.2404    0.0000 O   0  0  0  0  0  0  0  0  0  0  0  0
    7.2058  -24.9904    0.0000 C   0  0  0  0  0  0  0  0  0  0  0  0
    7.2058  -26.4904    0.0000 N   0  0  0  0  0  0  0  0  0  0  0  0
    5.9067  -24.2404    0.0000 N   0  0  0  0  0  0  0  0  0  0  0  0
    4.6077  -24.9904    0.0000 O   0  0  0  0  0  0  0  0  0  0  0  0
    3.3087  -24.2404    0.0000 C   0  0  0  0  0  0  0  0  0  0  0  0
    2.0096  -24.9904    0.0000 O   0  0  0  0  0  0  0  0  0  0  0  0
    0.7106  -24.2404    0.0000 C   0  0  0  0  0  0  0  0  0  0  0  0
    0.7106  -22.7404    0.0000 O   0  0  0  0  0  0  0  0  0  0  0  0
   -0.5885  -24.9904    0.0000 C   0  0  0  0  0  3  0  0  0  0  0  0
   -1.8875  -24.2404    0.0000 C   0  0  0  0  0  3  0  0  0  0  0  0
   -3.1865  -24.9904    0.0000 C   0  0  0  0  0  3  0  0  0  0  0  0
   -4.4856  -24.2404    0.0000 C   0  0  0  0  0  3  0  0  0  0  0  0
   -5.7846  -24.9904    0.0000 N   0  0  0  0  0  3  0  0  0  0  0  0
   -7.0836  -24.2404    0.0000 C   0  0  0  0  0  3  0  0  0  0  0  0
   -8.3827  -24.9904    0.0000 C   0  0  0  0  0  0  0  0  0  0  0  0
   -9.6817  -24.2404    0.0000 O   0  0  0  0  0  0  0  0  0  0  0  0
  -10.9808  -24.9904    0.0000 N   0  0  0  0  0  0  0  0  0  0  0  0
  -12.2798  -24.2404    0.0000 C   0  0  0  0  0  0  0  0  0  0  0  0
  -13.5788  -24.9904    0.0000 C   0  0  0  0  0  0  0  0  0  0  0  0
  -12.2798  -22.7404    0.0000 C   0  0  0  0  0  3  0  0  0  0  0  0
  -13.5788  -21.9904    0.0000 C   0  0  0  0  0  0  0  0  0  0  0  0
   -5.7846  -26.4904    0.0000 N   0  0  0  0  0  0  0  0  0  0  0  0
   -7.0836  -27.2404    0.0000 C   0  0  0  0  0  2  0  0  0  0  0  0
  2  1  1  1
  2  3  1  0
  3  4  1  0
  4  5  1  6
  4  6  1  0
  6  7  1  6
  6  8  1  0
  8  9  1  1
  8 10  1  0
 10 11  1  1
 11 12  1  0
 12 13  1  0
 13 14  1  0
 13 15  1  0
 15 16  1  0
 16 17  1  1
 16 18  1  0
 18 19  1  1
 18 20  1  0
 20 21  1  1
 20 22  1  0
 22 23  1  0
 23 24  1  0
 24 25  1  0
 25 26  1  0
 26 27  1  0
 27 28  1  0
 28 29  1  0
 29 30  1  6
 29 31  1  0
 31 32  1  0
 32 33  1  0
 33 34  1  1
 33 35  1  0
 35 36  1  0
 36 37  1  0
 37 38  1  0
 38 39  1  1
 38 40  1  0
 40 41  1  0
 41 42  1  0
 42 43  1  0
 42 44  1  0
 44 45  1  0
 45 46  1  0
 46 47  1  0
 47 48  1  1
 47 49  1  0
 49 50  1  0
 50 51  1  0
 51 52  1  0
 52 53  1  0
 42 54  1  0
 54 55  1  0
 55 56  1  1
 55 57  1  0
 57 58  1  0
 58 59  1  0
 59 60  1  0
 60 61  1  0
 61 62  1  0
 62 63  1  0
 63 64  1  0
 64 65  1  0
 65 66  1  6
 65 67  1  0
 67 68  1  0
 68 69  1  0
 69 70  1  0
 70 71  1  0
 71 72  1  1
 71 73  1  0
 73 74  1  0
 74 75  1  0
 75 76  1  0
 76 77  1  0
 77 78  1  0
 78 79  1  0
 79 80  1  0
 80 81  1  0
 81 82  1  0
 82 83  1  6
 82 84  1  0
 84 85  1  0
 77 86  1  0
 86 87  1  0
 10  2  1  0
M  RAD  8  12   2  22   2  23   2  28   2  32   2  35   2  40   2  41   2
M  RAD  8  44   2  52   2  57   2  63   2  73   2  74   2  75   2  76   2
M  CHG  1  77   1
M  RAD  4  77   2  78   2  84   2  87   3
M  END
>  <fragInfo>  (1) 
1 2 3 4 5 6 7 8 9 10
11
12
13 14
15
16 17
18 19
20 21
22
23
24
25
26
27
28
29 30
31
32
33 34
35
36
37
38 39
40
41
42 43
44
45
46
47 48
49
50
51
52 53
54
55 56
57
58
59
60
61
62
63
64
65 66
67
68
69
70
71 72
73
74
75
76
77
78
79
80
81
82 83
84 85
86 87


>  <torsionInfo>  (1) 
10 11 0 1
11 12 1 2
12 13 2 3
13 15 3 4
15 16 4 5
16 18 5 6
18 20 6 7
20 22 7 8
22 23 8 9
23 24 9 10
24 25 10 11
25 26 11 12
26 27 12 13
27 28 13 14
28 29 14 15
29 31 15 16
31 32 16 17
32 33 17 18
33 35 18 19
35 36 19 20
36 37 20 21
37 38 21 22
38 40 22 23
40 41 23 24
41 42 24 25
42 44 25 26
42 54 25 34
44 45 26 27
45 46 27 28
46 47 28 29
47 49 29 30
49 50 30 31
50 51 31 32
51 52 32 33
54 55 34 35
55 57 35 36
57 58 36 37
58 59 37 38
59 60 38 39
60 61 39 40
61 62 40 41
62 63 41 42
63 64 42 43
64 65 43 44
65 67 44 45
67 68 45 46
68 69 46 47
69 70 47 48
70 71 48 49
71 73 49 50
73 74 50 51
74 75 51 52
75 76 52 53
76 77 53 54
77 78 54 55
77 86 54 61
78 79 55 56
79 80 56 57
80 81 57 58
81 82 58 59
82 84 59 60


>  <atomInfo>  (1) 
1  -0.0608233C 
2  -0.0236268C 
3  -0.0201755C 
4  0.08280077C 
5  -0.3903155OA
6  0.10722524C 
7  -0.3876533OA
8  0.09793080C 
9  -0.3886791OA
10 0.03848614C 
11 -0.3043248NA
12 0.05131938C 
13 0.07475377C 
14 -0.0369457C 
15 -0.3478838OA
16 0.15949819C 
17 -0.3676273OA
18 0.03325849C 
19 -0.0551396C 
20 0.06491475C 
21 -0.3923365OA
22 -0.0036118C 
23 -0.0033363C 
24 0.08888889C 
25 -0.2058533OA
26 -0.0675277OA
27 -0.1942736OA
28 0.18078840C 
29 0.18750249C 
30 -0.3656262OA
31 -0.3411009OA
32 0.11573439C 
33 0.08737185C 
34 -0.3899568OA
35 0.00664380C 
36 0.00331167C 
37 -0.2917027NA
38 0.10807966C 
39 -0.3782967OA
40 0.01122331C 
41 0.00103883C 
42 0.07535814C 
43 -0.0350901C 
44 -0.0063127C 
45 -0.0448568C 
46 -0.0265378C 
47 0.05618950C 
48 -0.3930405OA
49 -0.0033648C 
50 0.04951351C 
51 -0.3757221OA
52 0.08053877C 
53 -0.0361165C 
54 -0.3458161OA
55 0.15806333C 
56 -0.3676932OA
57 0.01744589C 
58 -0.0451459C 
59 -0.0528396C 
60 -0.0531956C 
61 -0.0507347C 
62 -0.0240223C 
63 0.08733546C 
64 -0.3422190OA
65 0.18271330C 
66 -0.2916287NA
67 -0.1575398NA
68 -0.2697032OA
69 0.16966655C 
70 -0.3246375OA
71 0.16055906C 
72 -0.3675926OA
73 0.02146334C 
74 -0.0198920C 
75 0.03705584C 
76 0.21641423C 
77 -0.0595575N 
78 0.23979571C 
79 0.13330484C 
80 -0.2946970OA
81 -0.1992176NA
82 0.03222556C 
83 -0.0471968C 
84 -0.0226625C 
85 -0.0606289C 
86 -0.1106444NA
87 0.10581177C 


>  <filename>  (1) 
ligand028

$$$$
