
     RDKit          3D

 63 65  0  0  0  0  0  0  0  0999 V2000
   -2.1540   -5.1209   -0.2724 C   0  0  0  0  0  0  0  0  0  0  0  0
   -1.8069   -4.6981    1.1209 C   0  0  0  0  0  0  0  0  0  0  0  0
   -2.2366   -5.7842    2.0841 C   0  0  0  0  0  0  0  0  0  0  0  0
   -2.4290   -3.3786    1.4773 C   0  0  0  0  0  0  0  0  0  0  0  0
   -1.9671   -2.3091    0.5569 C   0  0  0  0  0  0  0  0  0  0  0  0
   -2.3750   -2.6006   -0.8717 C   0  0  2  0  0  0  0  0  0  0  0  0
   -1.8503   -1.4780   -1.7657 C   0  0  1  0  0  0  0  0  0  0  0  0
   -1.7647   -0.2418   -0.9066 C   0  0  0  0  0  0  0  0  0  0  0  0
   -0.4293   -1.8678   -2.1435 C   0  0  0  0  0  3  0  0  0  0  0  0
    0.3952   -2.1487   -0.8848 C   0  0  0  0  0  3  0  0  0  0  0  0
    1.4130   -1.0486   -0.6945 C   0  0  0  0  0  0  0  0  0  0  0  0
    2.6263   -1.5626    0.0511 C   0  0  2  0  0  0  0  0  0  0  0  0
    3.4407   -0.4401    0.6407 C   0  0  0  0  0  0  0  0  0  0  0  0
    3.4636   -2.3728   -0.9348 C   0  0  0  0  0  0  0  0  0  0  0  0
    3.2524   -3.8503   -0.6176 C   0  0  1  0  0  0  0  0  0  0  0  0
    3.1763   -4.5465   -1.8097 F   0  0  0  0  0  0  0  0  0  0  0  0
    4.4721   -4.3100    0.1552 C   0  0  0  0  0  0  0  0  0  0  0  0
    5.6818   -3.9833   -0.6896 C   0  0  0  0  0  0  0  0  0  0  0  0
    6.6357   -3.0521   -0.0057 C   0  0  2  0  0  0  0  0  0  0  0  0
    6.2647   -2.7702    1.2909 O   0  0  0  0  0  0  0  0  0  0  0  0
    6.8157   -1.7524   -0.7776 C   0  0  2  0  0  0  0  0  0  0  0  0
    8.2935   -1.5078   -0.9028 C   0  0  0  0  0  0  0  0  0  0  0  0
    8.6366   -0.0682   -1.1282 C   0  0  0  0  0  0  0  0  0  0  0  0
    8.1578    0.8058   -0.0077 C   0  0  1  0  0  0  0  0  0  0  0  0
    7.8335    2.0587   -0.5038 O   0  0  0  0  0  0  0  0  0  0  0  0
    7.0449    0.1896    0.7952 C   0  0  0  0  0  0  0  0  0  0  0  0
    6.1037   -0.6363   -0.0378 C   0  0  1  0  0  0  0  0  0  0  0  0
    5.2716    0.2143   -0.9507 C   0  0  0  0  0  0  0  0  0  0  0  0
    3.8865    0.4623   -0.4719 C   0  0  2  0  0  0  0  0  0  0  0  0
    3.5356    1.8993   -0.2716 C   0  0  0  0  0  0  0  0  0  0  0  0
    4.1488    2.5178    0.9448 C   0  0  0  0  0  0  0  0  0  0  0  0
    3.4838    3.8837    1.1438 C   0  0  0  0  0  0  0  0  0  0  0  0
    3.1040    4.4570   -0.2134 C   0  0  0  0  0  0  0  0  0  0  0  0
    2.8934    5.9468   -0.1376 C   0  0  2  0  0  0  0  0  0  0  0  0
    3.7552    6.6405   -0.9615 F   0  0  0  0  0  0  0  0  0  0  0  0
    3.1042    6.4802    1.2702 C   0  0  0  0  0  0  0  0  0  0  0  0
    1.4788    6.3446   -0.5373 C   0  0  0  0  0  0  0  0  0  0  0  0
    0.5775    5.1719   -0.3090 C   0  0  0  0  0  0  0  0  0  0  0  0
   -0.4577    5.4631    0.7744 C   0  0  0  0  0  0  0  0  0  0  0  0
   -1.4453    6.5235    0.3177 C   0  0  0  0  0  0  0  0  0  0  0  0
   -0.8641    7.9090    0.4325 C   0  0  0  0  0  0  0  0  0  0  0  0
   -1.8120    6.2393   -1.1354 C   0  0  0  0  0  0  0  0  0  0  0  0
   -2.6785    6.4000    1.1922 C   0  0  0  0  0  0  0  0  0  0  0  0
   -3.0175    4.9268    1.3565 C   0  0  0  0  0  0  0  0  0  0  0  0
   -3.8287    4.4903    0.1452 C   0  0  0  0  0  3  0  0  0  0  0  0
   -4.0055    2.9996    0.2058 C   0  0  0  0  0  0  0  0  0  0  0  0
   -4.7595    2.6268    1.4774 C   0  0  1  0  0  0  0  0  0  0  0  0
   -4.5021    3.6152    2.4097 F   0  0  0  0  0  0  0  0  0  0  0  0
   -6.2450    2.5672    1.2182 C   0  0  0  0  0  0  0  0  0  0  0  0
   -4.2132    1.2889    1.9581 C   0  0  0  0  0  0  0  0  0  0  0  0
   -4.8439    0.1946    1.1605 C   0  0  1  0  0  0  0  0  0  0  0  0
   -5.4543    0.6644   -0.1358 C   0  0  0  0  0  0  0  0  0  0  0  0
   -3.8910   -0.9766    0.9290 C   0  0  0  0  0  3  0  0  0  0  0  0
   -4.5214   -1.8310   -0.1094 C   0  0  0  0  0  0  0  0  0  0  0  0
   -3.8992   -2.6034   -0.9728 C   0  0  0  0  0  0  0  0  0  0  0  0
   -4.4669   -3.4481   -2.0207 C   0  0  0  0  0  0  0  0  0  0  0  0
   -5.8440   -3.7127   -2.1621 C   0  0  0  0  0  0  0  0  0  0  0  0
   -6.7384   -4.4646   -1.3310 C   0  0  1  0  0  0  0  0  0  0  0  0
   -8.0447   -4.3971   -1.8412 F   0  0  0  0  0  0  0  0  0  0  0  0
   -6.3420   -5.9861   -1.6140 C   0  0  0  0  0  0  0  0  0  0  0  0
   -6.7583   -4.3173    0.1388 C   0  0  2  0  0  0  0  0  0  0  0  0
   -5.4562   -4.7295    0.7484 C   0  0  0  0  0  0  0  0  0  0  0  0
   -7.8445   -4.9862    0.6673 F   0  0  0  0  0  0  0  0  0  0  0  0
  1  2  1  0
  2  3  1  0
  2  4  1  0
  4  5  1  0
  6  5  1  1
  6  7  1  0
  7  8  1  1
  7  9  1  0
  9 10  1  0
 10 11  1  0
 12 11  1  6
 12 13  1  0
 12 14  1  0
 14 15  1  0
 15 16  1  6
 15 17  1  0
 17 18  1  0
 18 19  1  0
 19 20  1  1
 19 21  1  0
 21 22  1  1
 22 23  1  0
 23 24  1  0
 24 25  1  6
 24 26  1  0
 27 26  1  6
 27 28  1  0
 29 28  1  1
 29 30  1  0
 30 31  1  0
 31 32  1  0
 32 33  1  0
 33 34  1  0
 34 35  1  0
 34 36  1  1
 34 37  1  0
 37 38  1  0
 38 39  1  0
 39 40  1  0
 40 41  1  0
 40 42  1  0
 40 43  1  0
 43 44  1  0
 44 45  1  0
 45 46  1  0
 46 47  1  0
 47 48  1  0
 47 49  1  6
 47 50  1  0
 50 51  1  0
 51 52  1  6
 51 53  1  0
 53 54  1  0
 54 55  2  3
 55 56  1  0
 56 57  1  0
 57 58  1  0
 58 59  1  0
 58 60  1  1
 58 61  1  0
 61 62  1  1
 61 63  1  0
 55  6  1  0
 29 13  1  0
 27 21  1  0
M  RAD  4   9   2  10   2  45   2  53   2
M  END
>  <fragInfo>  (1) 
6 7 8 9 10 11 12 13 14 15 16 17 18 19 20 21 22 23 24 25 26 27 28 29 30 31 32 33 34 35 36 37 38 39 40 41 42 43 44 45 46 47 48 49 50 51 52 53 54 55
1 2 3
4
5
56
57
58 59 60
61 62 63


>  <torsionInfo>  (1) 
5 6 3 0
55 56 0 4
2 4 1 2
4 5 2 3
56 57 4 5
57 58 5 6
58 61 6 7


>  <atomInfo>  (1) 
1  -0.0627732C 
2  -0.0471110C 
3  -0.0627732C 
4  -0.0503936C 
5  -0.0461848C 
6  -0.0174430C 
7  -0.0342942C 
8  -0.0616498C 
9  -0.0317560C 
10 -0.0346199C 
11 -0.0469145C 
12 -0.0381201C 
13 -0.0474651C 
14 -0.0188157C 
15 0.10047811C 
16 -0.2474824F 
17 -0.0192094C 
18 -0.0239616C 
19 0.05716766C 
20 -0.3928293OA
21 -0.0122236C 
22 -0.0452550C 
23 -0.0266284C 
24 0.05427277C 
25 -0.3931200OA
26 -0.0237889C 
27 -0.0334030C 
28 -0.0471242C 
29 -0.0408862C 
30 -0.0504251C 
31 -0.0529272C 
32 -0.0502635C 
33 -0.0190969C 
34 0.10787445C 
35 -0.2441965F 
36 -0.0307356C 
37 -0.0190771C 
38 -0.0497653C 
39 -0.0480108C 
40 -0.0354094C 
41 -0.0599093C 
42 -0.0599093C 
43 -0.0478496C 
44 -0.0495575C 
45 -0.0354213C 
46 -0.0159725C 
47 0.10842221C 
48 -0.2441734F 
49 -0.0307134C 
50 -0.0159194C 
51 -0.0343514C 
52 -0.0618092C 
53 -0.0138177C 
54 -0.0810559C 
55 -0.0703922C 
56 -0.0285882C 
57 -0.0124420C 
58 0.13880482C 
59 -0.2409868F 
60 -0.0278068C 
61 0.13088969C 
62 -0.0304131C 
63 -0.2442873F 


>  <filename>  (1) 
ligand005

$$$$
