
     RDKit          3D

 76 81  0  0  0  0  0  0  0  0999 V2000
  -11.2968   -1.8549   -1.5096 C   0  0  0  0  0  0  0  0  0  0  0  0
  -11.1780   -2.3133   -0.0564 C   0  0  0  0  0  3  0  0  0  0  0  0
  -10.2638   -1.3686    0.6318 C   0  0  2  0  0  0  0  0  0  0  0  0
  -10.1536   -1.7037    2.1189 C   0  0  2  0  0  0  0  0  0  0  0  0
  -11.3447   -2.2370    2.6277 O   0  0  0  0  0  0  0  0  0  0  0  0
   -9.6802   -0.5329    2.9395 C   0  0  0  0  0  0  0  0  0  0  0  0
  -10.7106    0.3038    3.3702 O   0  0  0  0  0  0  0  0  0  0  0  0
  -10.8153    1.2616    2.4605 O   0  0  0  0  0  0  0  0  0  0  0  0
  -11.4843    0.6857    1.3786 C   0  0  1  0  0  0  0  0  0  0  0  0
  -12.3691    1.5857    0.7670 O   0  0  0  0  0  0  0  0  0  0  0  0
  -10.5408    0.0907    0.3915 C   0  0  1  0  0  0  0  0  0  0  0  0
   -9.3580    0.8484    0.1482 N   0  0  0  0  0  0  0  0  0  0  0  0
   -8.7750    0.4352   -1.1645 C   0  0  1  0  0  0  0  0  0  0  0  0
   -8.6496    1.5048   -2.0768 C   0  0  0  0  0  0  0  0  0  0  0  0
   -8.6400    0.8313   -3.5280 C   0  0  2  0  0  0  0  0  0  0  0  0
   -7.9898    1.6991   -4.3319 O   0  0  0  0  0  0  0  0  0  0  0  0
  -10.1200    0.7249   -3.7902 C   0  0  0  0  0  0  0  0  0  0  0  0
  -10.9030    1.6471   -3.1489 O   0  0  0  0  0  0  0  0  0  0  0  0
   -8.1223   -0.5320   -3.3123 C   0  0  1  0  0  0  0  0  0  0  0  0
   -7.6302   -0.9250   -4.5696 O   0  0  0  0  0  0  0  0  0  0  0  0
   -7.0269   -0.6965   -2.2966 C   0  0  2  0  0  0  0  0  0  0  0  0
   -6.7879   -2.0977   -2.2651 O   0  0  0  0  0  0  0  0  0  0  0  0
   -7.5071   -0.3772   -0.8153 C   0  0  1  0  0  0  0  0  0  0  0  0
   -6.6057    0.6368   -0.3002 O   0  0  0  0  0  0  0  0  0  0  0  0
   -6.2094    0.4120    0.8790 O   0  0  0  0  0  0  0  0  0  0  0  0
   -5.6654   -0.6564    1.3328 O   0  0  0  0  0  0  0  0  0  0  0  0
   -4.6442   -0.8614    0.2485 C   0  0  2  0  0  0  0  0  0  0  0  0
   -4.0643   -2.0302    0.9686 O   0  0  0  0  0  0  0  0  0  0  0  0
   -3.7234    0.1971    0.7333 O   0  0  0  0  0  0  0  0  0  0  0  0
   -3.4136    0.8570   -0.4623 C   0  0  0  0  0  3  0  0  0  0  0  0
   -2.0767    1.3142   -0.7136 C   0  0  1  0  0  0  0  0  0  0  0  0
   -1.1446    1.5308    0.8081 S   0  0  0  0  0  0  0  0  0  0  0  0
    0.9371    1.6078    0.4547 S   0  0  0  0  0  0  0  0  0  0  0  0
    1.5699    0.1816   -0.3987 C   0  0  1  0  0  0  0  0  0  0  0  0
    1.1783    0.1558   -1.7155 O   0  0  0  0  0  0  0  0  0  0  0  0
    1.0227    1.3929   -2.1444 O   0  0  0  0  0  0  0  0  0  0  0  0
    2.1717    1.6753   -2.8299 C   0  0  0  0  0  3  0  0  0  0  0  0
    3.2045    2.3358   -1.9360 C   0  0  0  0  0  0  0  0  0  0  0  0
    4.2102    1.3141   -1.4577 C   0  0  0  0  0  0  0  0  0  0  0  0
    4.5507    1.5072   -0.1045 O   0  0  0  0  0  0  0  0  0  0  0  0
    3.6723    0.8357    0.6742 C   0  0  1  0  0  0  0  0  0  0  0  0
    2.9374   -0.2356   -0.0646 C   0  0  1  0  0  0  0  0  0  0  0  0
    3.1797   -1.6245    0.3684 C   0  0  0  0  0  2  0  0  0  0  0  0
   -1.5454    0.3232   -1.5627 O   0  0  0  0  0  0  0  0  0  0  0  0
   -1.7444   -0.8709   -0.8318 C   0  0  0  0  0  0  0  0  0  0  0  0
   -0.8021   -1.0928    0.0289 O   0  0  0  0  0  0  0  0  0  0  0  0
   -0.8605   -1.8383    1.0911 C   0  0  0  0  0  3  0  0  0  0  0  0
    0.3565   -2.0322    1.9179 C   0  0  0  0  0  0  0  0  0  0  0  0
    0.4594   -1.0478    2.8872 O   0  0  0  0  0  0  0  0  0  0  0  0
    1.5456   -1.2097    3.6199 O   0  0  0  0  0  0  0  0  0  0  0  0
    2.4573   -0.2075    3.2926 C   0  0  0  0  0  0  0  0  0  0  0  0
    3.3967   -0.7314    2.3518 O   0  0  0  0  0  0  0  0  0  0  0  0
    4.2571    0.4244    2.0546 C   0  0  1  0  0  0  0  0  0  0  0  0
    5.5017   -0.2249    1.8113 O   0  0  0  0  0  0  0  0  0  0  0  0
    5.6737   -0.4489    0.5325 C   0  0  0  0  0  0  0  0  0  0  0  0
    6.4174   -1.4259    0.0264 O   0  0  0  0  0  0  0  0  0  0  0  0
    7.5494   -1.9903    0.6379 C   0  0  2  0  0  0  0  0  0  0  0  0
    6.8619   -2.8918    1.6101 O   0  0  0  0  0  0  0  0  0  0  0  0
    7.7087   -0.8522    1.6659 O   0  0  0  0  0  0  0  0  0  0  0  0
    8.8662   -0.3179    1.4523 O   0  0  0  0  0  0  0  0  0  0  0  0
    9.8731   -0.7791    0.9984 O   0  0  0  0  0  0  0  0  0  0  0  0
   10.3723    0.0056   -0.1275 C   0  0  2  0  0  0  0  0  0  0  0  0
   11.5222   -0.6030   -0.5880 O   0  0  0  0  0  0  0  0  0  0  0  0
   12.5196   -0.8050    0.2999 C   0  0  1  0  0  0  0  0  0  0  0  0
   13.3839    0.3043    0.2495 O   0  0  0  0  0  0  0  0  0  0  0  0
   12.0405   -1.1035    1.6980 C   0  0  0  0  0  0  0  0  0  0  0  0
   12.2190    0.0139    2.5129 O   0  0  0  0  0  0  0  0  0  0  0  0
   11.0988    0.8232    2.3341 C   0  0  0  0  0  3  0  0  0  0  0  0
   11.3609    1.6783    1.2654 O   0  0  0  0  0  0  0  0  0  0  0  0
   10.5167    1.4218    0.1856 C   0  0  1  0  0  0  0  0  0  0  0  0
   11.0468    2.0348   -0.9672 O   0  0  0  0  0  0  0  0  0  0  0  0
   10.3119    1.6654   -1.9946 O   0  0  0  0  0  0  0  0  0  0  0  0
    9.0591    1.2057   -1.6948 C   0  0  0  0  0  0  0  0  0  0  0  0
    9.2070   -0.2677   -1.1070 C   0  0  1  0  0  0  0  0  0  0  0  0
    9.9023   -0.9468   -2.1836 O   0  0  0  0  0  0  0  0  0  0  0  0
    9.7264   -2.2803   -1.7757 N   0  0  0  0  0  0  0  0  0  0  0  0
  1  2  1  0
  3  2  1  1
  3  4  1  0
  4  5  1  1
  4  6  1  0
  6  7  1  0
  7  8  1  0
  8  9  1  0
  9 10  1  6
  9 11  1  0
 11 12  1  1
 13 12  1  1
 13 14  1  0
 14 15  1  0
 15 16  1  6
 15 17  1  0
 17 18  1  0
 15 19  1  0
 19 20  1  6
 19 21  1  0
 21 22  1  1
 21 23  1  0
 23 24  1  6
 24 25  1  0
 25 26  1  0
 26 27  1  0
 27 28  1  1
 27 29  1  0
 29 30  1  0
 31 30  1  1
 31 32  1  0
 32 33  1  0
 33 34  1  0
 34 35  1  6
 35 36  1  0
 36 37  1  0
 37 38  1  0
 38 39  1  0
 39 40  1  0
 41 40  1  6
 41 42  1  0
 42 43  1  1
 31 44  1  0
 44 45  1  0
 45 46  1  0
 46 47  1  0
 47 48  1  0
 48 49  1  0
 49 50  1  0
 50 51  1  0
 51 52  1  0
 52 53  1  0
 53 54  1  6
 54 55  1  0
 55 56  1  0
 56 57  1  0
 57 58  1  1
 57 59  1  0
 59 60  1  0
 60 61  1  0
 62 61  1  1
 62 63  1  0
 63 64  1  0
 64 65  1  1
 64 66  1  0
 66 67  1  0
 67 68  1  0
 68 69  1  0
 70 69  1  1
 70 71  1  0
 71 72  1  0
 72 73  1  0
 73 74  1  0
 74 75  1  6
 75 76  1  0
 11  3  1  0
 23 13  1  0
 42 34  1  0
 53 41  1  0
 70 62  1  0
 74 62  1  0
M  RAD  6   2   2  30   2  37   2  43   3  47   2  68   2
M  END
>  <fragInfo>  (1) 
31 32 33 34 35 36 37 38 39 40 41 42 43 44 45 46 47 48 49 50 51 52 53
1 2
3 4 5 6 7 8 9 10 11
12
13 14 15 16 19 20 21 22 23
17 18
24
25
26
27 28
29
30
54
55
56
57 58
59
60
61
62 63 64 65 66 67 68 69 70 71 72 73 74
75 76


>  <torsionInfo>  (1) 
30 31 11 0
53 54 0 12
2 3 1 2
11 12 2 3
12 13 3 4
15 17 4 5
23 24 4 6
24 25 6 7
25 26 7 8
26 27 8 9
27 29 9 10
29 30 10 11
54 55 12 13
55 56 13 14
56 57 14 15
57 59 15 16
59 60 16 17
60 61 17 18
61 62 18 19
74 75 19 20


>  <atomInfo>  (1) 
1  -0.0618167C 
2  -0.0341822C 
3  0.01045124C 
4  0.08525701C 
5  -0.3902309OA
6  0.10856624C 
7  -0.2312293OA
8  -0.2028724OA
9  0.20412570C 
10 -0.3644112OA
11 0.06712308C 
12 -0.3032425NA
13 0.04239620C 
14 -0.0009379C 
15 0.11761908C 
16 -0.3845999OA
17 0.07461792C 
18 -0.3932744OA
19 0.11355450C 
20 -0.3872026OA
21 0.11373923C 
22 -0.3873862OA
23 0.13982813C 
24 -0.1981252OA
25 -0.0625010OA
26 -0.1441858OA
27 0.30196513C 
28 -0.3438804OA
29 -0.3181848OA
30 0.12933803C 
31 0.14459259C 
32 -0.0562887SA
33 -0.0554526SA
34 0.15385093C 
35 -0.2207130OA
36 -0.2292198OA
37 0.12451615C 
38 0.00282380C 
39 0.04991070C 
40 -0.3723782OA
41 0.11509337C 
42 0.03330017C 
43 -0.0251606C 
44 -0.3378423OA
45 0.14854553C 
46 -0.3467893OA
47 0.11544290C 
48 0.11125558C 
49 -0.2314715OA
50 -0.2077381OA
51 0.18354176C 
52 -0.3205292OA
53 0.18924272C 
54 -0.3235059OA
55 0.15524431C 
56 -0.3010974OA
57 0.30348478C 
58 -0.3438332OA
59 -0.1440163OA
60 -0.0595806OA
61 -0.1612837OA
62 0.29189506C 
63 -0.3090579OA
64 0.18168470C 
65 -0.3659298OA
66 0.10098652C 
67 -0.3425510OA
68 0.21211849C 
69 -0.3100532OA
70 0.25387566C 
71 -0.1980268OA
72 -0.2307479OA
73 0.11621694C 
74 0.16729152C 
75 -0.2926714OA
76 -0.2151663NA


>  <filename>  (1) 
ligand007

$$$$
