
     RDKit          3D

 24 25  0  0  0  0  0  0  0  0999 V2000
   -1.5599   -2.4104    1.0380 C   0  0  0  0  0  0  0  0  0  0  0  0
   -2.2647   -1.7691   -0.1257 C   0  0  1  0  0  0  0  0  0  0  0  0
   -3.7448   -1.5532    0.1925 C   0  0  0  0  0  0  0  0  0  0  0  0
   -4.2316   -0.2467   -0.4254 C   0  0  2  0  0  0  0  0  0  0  0  0
   -3.7780   -0.2422   -1.7426 O   0  0  0  0  0  0  0  0  0  0  0  0
   -3.5939    0.9336    0.2915 C   0  0  2  0  0  0  0  0  0  0  0  0
   -3.4691    2.0052   -0.6087 O   0  0  0  0  0  0  0  0  0  0  0  0
   -2.1900    0.5136    0.6318 C   0  0  1  0  0  0  0  0  0  0  0  0
   -2.1088   -0.1362    1.8541 O   0  0  0  0  0  0  0  0  0  0  0  0
   -1.7157   -0.4227   -0.4813 C   0  0  1  0  0  0  0  0  0  0  0  0
   -0.3264   -0.3301   -0.6899 N   0  0  0  0  0  0  0  0  0  0  0  0
    0.5160   -0.2789    0.4636 C   0  0  1  0  0  0  0  0  0  0  0  0
    1.5902   -1.2746    0.3749 C   0  0  0  0  0  0  0  0  0  0  0  0
    2.9682   -0.7853    0.1430 C   0  0  1  0  0  0  0  0  0  0  0  0
    3.6869   -0.8337    1.3458 O   0  0  0  0  0  0  0  0  0  0  0  0
    3.6770   -1.7601   -0.7866 C   0  0  0  0  0  0  0  0  0  0  0  0
    3.7700   -3.0265   -0.2444 O   0  0  0  0  0  0  0  0  0  0  0  0
    3.1410    0.5645   -0.4587 C   0  0  1  0  0  0  0  0  0  0  0  0
    3.9202    0.5931   -1.6006 O   0  0  0  0  0  0  0  0  0  0  0  0
    1.8695    1.3085   -0.7305 C   0  0  2  0  0  0  0  0  0  0  0  0
    2.1070    2.6311   -1.0303 O   0  0  0  0  0  0  0  0  0  0  0  0
    1.0487    1.1445    0.5406 C   0  0  1  0  0  0  0  0  0  0  0  0
    0.0632    2.1014    0.6406 O   0  0  0  0  0  0  0  0  0  0  0  0
    0.6252    3.2741    0.5705 O   0  0  0  0  0  0  0  0  0  0  0  0
  2  1  1  1
  2  3  1  0
  3  4  1  0
  4  5  1  6
  4  6  1  0
  6  7  1  6
  6  8  1  0
  8  9  1  1
  8 10  1  0
 10 11  1  1
 12 11  1  6
 12 13  1  0
 13 14  1  0
 14 15  1  1
 14 16  1  0
 16 17  1  0
 14 18  1  0
 18 19  1  6
 18 20  1  0
 20 21  1  1
 20 22  1  0
 22 23  1  6
 23 24  1  0
 10  2  1  0
 22 12  1  0
M  END
>  <fragInfo>  (1) 
1 2 3 4 5 6 7 8 9 10
11
12 13 14 15 18 19 20 21 22
16 17
23 24


>  <torsionInfo>  (1) 
10 11 0 1
11 12 1 2
14 16 2 3
22 23 2 4


>  <atomInfo>  (1) 
1  -0.0608233C 
2  -0.0236278C 
3  -0.0201755C 
4  0.08280077C 
5  -0.3903155OA
6  0.10722523C 
7  -0.3876533OA
8  0.09792987C 
9  -0.3886791OA
10 0.03843587C 
11 -0.3053974NA
12 0.04218563C 
13 -0.0009416C 
14 0.11761903C 
15 -0.3845999OA
16 0.07461792C 
17 -0.3932744OA
18 0.11355220C 
19 -0.3872026OA
20 0.11360972C 
21 -0.3873885OA
22 0.13642616C 
23 -0.2315762OA
24 -0.2513804OA


>  <filename>  (1) 
ligand019

$$$$
