
     RDKit          3D

 29 29  0  0  0  0  0  0  0  0999 V2000
    9.2558   -1.8427    1.1271 C   0  0  0  0  0  0  0  0  0  0  0  0
    8.7336   -1.0348   -0.0399 C   0  0  0  0  0  0  0  0  0  0  0  0
    8.2631   -1.9273   -1.1767 C   0  0  0  0  0  0  0  0  0  0  0  0
    7.6321   -0.0832    0.3685 C   0  0  0  0  0  0  0  0  0  0  0  0
    6.4596   -0.8681    0.9565 C   0  0  0  0  0  0  0  0  0  0  0  0
    5.3499    0.0395    1.3722 C   0  0  0  0  0  0  0  0  0  0  0  0
    4.8107    0.8435    0.2096 C   0  0  1  0  0  0  0  0  0  0  0  0
    5.8829    1.7130   -0.4168 C   0  0  0  0  0  0  0  0  0  0  0  0
    4.0932   -0.0049   -0.7929 C   0  0  0  0  0  3  0  0  0  0  0  0
    3.6035    0.9100   -1.9012 C   0  0  0  0  0  0  0  0  0  0  0  0
    2.6622    1.9697   -1.3806 C   0  0  0  0  0  0  0  0  0  0  0  0
    1.4753    1.2941   -0.7548 C   0  0  0  0  0  3  0  0  0  0  0  0
    0.4830    2.2930   -0.2078 C   0  0  1  0  0  0  0  0  0  0  0  0
   -0.0493    3.2076   -1.2846 C   0  0  0  0  0  0  0  0  0  0  0  0
   -0.6256    1.5343    0.4862 C   0  0  0  0  0  0  0  0  0  0  0  0
   -1.3353    0.5961   -0.4975 C   0  0  0  0  0  0  0  0  0  0  0  0
   -2.4219   -0.1093    0.3030 C   0  0  0  0  0  0  0  0  0  0  0  0
   -3.3438    0.9947    0.8350 C   0  0  0  0  0  0  0  0  0  0  0  0
   -4.4516    0.3453    1.6450 C   0  0  1  0  0  0  0  0  0  0  0  0
   -5.2746    1.3310    2.1199 O   0  0  0  0  0  0  0  0  0  0  0  0
   -5.0932   -0.6955    0.8223 C   0  0  1  0  0  0  0  0  0  0  0  0
   -6.2100   -1.4334    1.4774 C   0  0  1  0  0  0  0  0  0  0  0  0
   -7.5141   -0.7045    1.1372 C   0  0  0  0  0  0  0  0  0  0  0  0
   -6.2873   -2.8127    0.8085 C   0  0  0  0  0  3  0  0  0  0  0  0
   -6.0843   -2.6976   -0.5503 O   0  0  0  0  0  0  0  0  0  0  0  0
   -4.7504   -2.4602   -0.8886 C   0  0  0  0  0  0  0  0  0  0  0  0
   -4.6081   -1.1608   -1.4102 O   0  0  0  0  0  0  0  0  0  0  0  0
   -5.4084   -0.3451   -0.5768 C   0  0  2  0  0  0  0  0  0  0  0  0
   -5.2473    1.1084   -0.9204 C   0  0  0  0  0  2  0  0  0  0  0  0
  1  2  1  0
  2  3  1  0
  2  4  1  0
  4  5  1  0
  5  6  1  0
  6  7  1  0
  7  8  1  6
  7  9  1  0
  9 10  1  0
 10 11  1  0
 11 12  1  0
 12 13  1  0
 13 14  1  6
 13 15  1  0
 15 16  1  0
 16 17  1  0
 17 18  1  0
 18 19  1  0
 19 20  1  6
 21 19  1  1
 21 22  1  0
 22 23  1  6
 22 24  1  0
 24 25  1  0
 25 26  1  0
 26 27  1  0
 27 28  1  0
 28 29  1  1
 28 21  1  0
M  RAD  4   9   2  12   2  24   2  29   3
M  END
>  <fragInfo>  (1) 
21 22 23 24 25 26 27 28 29
1 2 3
4
5
6
7 8
9
10
11
12
13 14
15
16
17
18
19 20


>  <torsionInfo>  (1) 
19 21 15 0
2 4 1 2
4 5 2 3
5 6 3 4
6 7 4 5
7 9 5 6
9 10 6 7
10 11 7 8
11 12 8 9
12 13 9 10
13 15 10 11
15 16 11 12
16 17 12 13
17 18 13 14
18 19 14 15


>  <atomInfo>  (1) 
1  -0.0627736C 
2  -0.0471324C 
3  -0.0627736C 
4  -0.0509643C 
5  -0.0527983C 
6  -0.0504266C 
7  -0.0411603C 
8  -0.0622342C 
9  -0.0357399C 
10 -0.0496341C 
11 -0.0496341C 
12 -0.0357399C 
13 -0.0411605C 
14 -0.0622342C 
15 -0.0504347C 
16 -0.0529468C 
17 -0.0508247C 
18 -0.0266207C 
19 0.05963983C 
20 -0.3927264OA
21 0.01663695C 
22 -0.0073381C 
23 -0.0594645C 
24 0.08987529C 
25 -0.3491802OA
26 0.14713874C 
27 -0.3514675OA
28 0.06953228C 
29 -0.0031014C 


>  <filename>  (1) 
ligand036

$$$$
