
     RDKit          3D

 20 21  0  0  0  0  0  0  0  0999 V2000
    0.5463   -1.5727   -0.9259 O   0  0  0  0  0  0  0  0  0  0  0  0
   -0.1929   -0.6662   -0.5052 C   0  0  0  0  0  0  0  0  0  0  0  0
    0.4086    0.4919    0.0584 N   0  0  0  0  0  0  0  0  0  0  0  0
    1.8223    0.5549    0.1126 C   0  0  0  0  0  0  0  0  0  0  0  0
    2.6026   -0.4549   -0.3570 C   0  0  0  0  0  0  0  0  0  0  0  0
    3.9697   -0.4339   -0.3237 C   0  0  0  0  0  0  0  0  0  0  0  0
    4.8954   -1.7710   -0.9473 Cl  0  0  0  0  0  0  0  0  0  0  0  0
    4.5837    0.6753    0.2171 C   0  0  0  0  0  0  0  0  0  0  0  0
    3.8461    1.7304    0.7091 C   0  0  0  0  0  0  0  0  0  0  0  0
    4.5233    2.7837    1.2242 F   0  0  0  0  0  0  0  0  0  0  0  0
    2.4742    1.6594    0.6518 C   0  0  0  0  0  0  0  0  0  0  0  0
   -1.5906   -0.8062   -0.5959 N   0  0  0  0  0  0  0  0  0  0  0  0
   -2.2856   -1.9420   -1.1504 C   0  0  0  0  0  0  0  0  0  0  0  0
   -3.4220   -2.1241   -0.1344 C   0  0  0  0  0  0  0  0  0  0  0  0
   -3.7628   -0.7091    0.1517 C   0  0  0  0  0  0  0  0  0  0  0  0
   -2.5904    0.1357   -0.1628 C   0  0  0  0  0  0  0  0  0  0  0  0
   -2.1387    0.9482    0.9969 C   0  0  0  0  0  0  0  0  0  0  0  0
   -2.9251    1.7739    1.4302 O   0  0  0  0  0  0  0  0  0  0  0  0
   -4.8674   -0.3290    0.5860 N   0  0  0  0  0  4  0  0  0  0  0  0
   -5.8967    0.0558    1.1744 N   0  0  0  0  0  2  0  0  0  0  0  0
  1  2  2  0
  2  3  1  0
  3  4  1  0
  4  5  2  0
  5  6  1  0
  6  7  1  0
  6  8  2  0
  8  9  1  0
  9 10  1  0
  9 11  2  0
  2 12  1  0
 12 13  1  0
 13 14  1  0
 14 15  1  0
 15 16  1  0
 16 17  1  0
 17 18  2  0
 15 19  2  0
 19 20  2  0
 11  4  1  0
 16 12  1  0
M  CHG  2  19   1  20  -1
M  END
$$$$
