
     RDKit          3D

 11 11  0  0  0  0  0  0  0  0999 V2000
   -3.5669    0.7494   -0.4295 O   0  0  0  0  0  0  0  0  0  0  0  0
   -2.9427   -0.1487    0.1673 C   0  0  0  0  0  0  0  0  0  0  0  0
   -1.5337   -0.1011    0.4199 N   0  0  0  0  0  0  0  0  0  0  0  0
   -0.9071    1.0656   -0.0721 C   0  0  0  0  0  0  0  0  0  0  0  0
    0.3867    1.2327   -0.2628 C   0  0  0  0  0  0  0  0  0  0  0  0
    1.4716    0.2625   -0.0142 C   0  0  0  0  0  0  0  0  0  0  0  0
    2.6602    0.8071   -0.1853 C   0  0  0  0  0  0  0  0  0  0  0  0
    3.8256    0.1491   -0.0242 F   0  0  0  0  0  0  0  0  0  0  0  0
   -1.0610   -1.2564    1.1226 C   0  0  0  0  0  0  0  0  0  0  0  0
    0.3009   -1.6623    0.8222 C   0  0  0  0  0  0  0  0  0  0  0  0
    1.3663   -1.0980    0.3630 N   0  0  0  0  0  0  0  0  0  0  0  0
  1  2  2  0
  2  3  1  0
  3  4  1  0
  4  5  2  0
  5  6  1  0
  6  7  2  3
  7  8  1  0
  3  9  1  0
  9 10  1  0
 10 11  2  0
 11  6  1  0
M  END
$$$$
