
     RDKit          3D

 29 32  0  0  0  0  0  0  0  0999 V2000
    0.6925   -0.9851    2.2022 O   0  0  0  0  0  0  0  0  0  0  0  0
    0.5931   -1.0050    0.9314 C   0  0  0  0  0  0  0  0  0  0  0  0
    1.6997   -0.4833    0.1689 N   0  0  0  0  0  0  0  0  0  0  0  0
    2.8324    0.0220    0.9139 C   0  0  0  0  0  0  0  0  0  0  0  0
    2.9877    1.5173    1.0818 C   0  0  0  0  0  0  0  0  0  0  0  0
    3.8678    0.8084    0.1094 C   0  0  0  0  0  0  0  0  0  0  0  0
    5.2645    0.5057    0.5017 C   0  0  0  0  0  0  0  0  0  0  0  0
    6.1672    0.1632   -0.4740 C   0  0  0  0  0  0  0  0  0  0  0  0
    7.4864   -0.1282   -0.1704 C   0  0  0  0  0  0  0  0  0  0  0  0
    7.8700   -0.0640    1.1491 C   0  0  0  0  0  0  0  0  0  0  0  0
    6.9532    0.2811    2.1173 C   0  0  0  0  0  0  0  0  0  0  0  0
    5.6405    0.5724    1.8260 C   0  0  0  0  0  0  0  0  0  0  0  0
   -0.5515   -1.5151    0.2577 N   0  0  0  0  0  0  0  0  0  0  0  0
   -0.4745   -1.4731   -1.2144 C   0  0  0  0  0  0  0  0  0  0  0  0
   -0.0520   -0.1027   -1.7077 C   0  0  0  0  0  0  0  0  0  0  0  0
   -1.1785    0.3271   -2.6924 C   0  0  0  0  0  0  0  0  0  0  0  0
   -2.3714   -0.4337   -2.0919 C   0  0  0  0  0  0  0  0  0  0  0  0
   -2.5791   -0.2266   -0.8551 N   0  0  0  0  0  0  0  0  0  0  0  0
   -3.4535   -0.6365    0.1094 C   0  0  0  0  0  0  0  0  0  0  0  0
   -4.8052   -0.2000    0.4038 C   0  0  0  0  0  0  0  0  0  0  0  0
   -5.6773    0.4445   -0.4325 C   0  0  0  0  0  0  0  0  0  0  0  0
   -6.9408    0.8473   -0.1185 C   0  0  0  0  0  0  0  0  0  0  0  0
   -7.4223    0.6074    1.1330 C   0  0  0  0  0  0  0  0  0  0  0  0
   -6.5609   -0.0482    2.0139 C   0  0  0  0  0  0  0  0  0  0  0  0
   -5.3306   -0.4251    1.6626 N   0  0  0  0  0  0  0  0  0  0  0  0
   -2.9224   -1.5730    0.9287 N   0  0  0  0  0  0  0  0  0  0  0  0
   -1.6652   -2.0341    0.7921 O   0  0  0  0  0  0  0  0  0  0  0  0
   -0.8532   -0.3744   -3.9912 C   0  0  0  0  0  0  0  0  0  0  0  0
    0.7833    0.1683   -4.5549 S   0  0  0  0  0  0  0  0  0  0  0  0
  1  2  2  0
  2  3  1  0
  3  4  1  0
  4  5  1  0
  5  6  1  0
  6  7  1  0
  7  8  2  0
  8  9  1  0
  9 10  2  0
 10 11  1  0
 11 12  2  0
  2 13  1  0
 13 14  1  0
 14 15  1  0
 15 16  1  0
 16 17  1  0
 17 18  2  3
 18 19  1  0
 19 20  1  0
 20 21  2  0
 21 22  1  0
 22 23  2  0
 23 24  1  0
 24 25  2  0
 19 26  2  3
 26 27  1  0
 16 28  1  0
 28 29  1  0
  6  4  1  0
 12  7  1  0
 27 13  1  0
 25 20  1  0
M  END
$$$$
