
     RDKit          3D

 27 30  0  0  0  0  0  0  0  0999 V2000
   -2.5859   -1.9684    1.2906 O   0  0  0  0  0  0  0  0  0  0  0  0
   -2.1543   -1.3391    0.3146 C   0  0  0  0  0  0  0  0  0  0  0  0
   -3.0713   -0.9832   -0.7153 N   0  0  0  0  0  0  0  0  0  0  0  0
   -4.4609   -1.3196   -0.6716 C   0  0  0  0  0  0  0  0  0  0  0  0
   -5.0515   -2.3305    0.2046 C   0  0  0  0  0  0  0  0  0  0  0  0
   -5.1978   -0.9486    0.6583 C   0  0  0  0  0  0  0  0  0  0  0  0
   -6.3774   -0.1041    0.3753 C   0  0  0  0  0  0  0  0  0  0  0  0
   -6.3289    1.2323    0.7676 C   0  0  0  0  0  0  0  0  0  0  0  0
   -7.3644    2.1030    0.5580 C   0  0  0  0  0  0  0  0  0  0  0  0
   -8.5157    1.6733   -0.0644 C   0  0  0  0  0  0  0  0  0  0  0  0
   -8.5757    0.3520   -0.4585 C   0  0  0  0  0  0  0  0  0  0  0  0
   -7.5277   -0.5422   -0.2492 C   0  0  0  0  0  0  0  0  0  0  0  0
   -0.7772   -0.9534    0.1729 N   0  0  0  0  0  0  0  0  0  0  0  0
    0.1260   -1.3282    1.2396 C   0  0  0  0  0  0  0  0  0  0  0  0
    1.4998   -0.8137    0.8611 C   0  0  0  0  0  0  0  0  0  0  0  0
    1.9256   -1.4358   -0.4304 C   0  0  0  0  0  0  0  0  0  0  0  0
    3.2623   -0.9798   -0.8709 C   0  0  0  0  0  0  0  0  0  0  0  0
    3.9963   -0.0892   -0.1686 N   0  0  0  0  0  0  0  0  0  0  0  0
    5.1660    0.1366   -0.8091 C   0  0  0  0  0  0  0  0  0  0  0  0
    6.1884    1.0438   -0.3216 C   0  0  0  0  0  0  0  0  0  0  0  0
    6.0176    1.7436    0.8520 C   0  0  0  0  0  0  0  0  0  0  0  0
    6.9498    2.6141    1.3619 C   0  0  0  0  0  0  0  0  0  0  0  0
    8.1452    2.8146    0.6645 C   0  0  0  0  0  0  0  0  0  0  0  0
    8.2812    2.0945   -0.5107 C   0  0  0  0  0  0  0  0  0  0  0  0
    7.3456    1.2514   -0.9768 N   0  0  0  0  0  0  0  0  0  0  0  0
    5.1098   -0.6331   -1.8973 N   0  0  0  0  0  0  0  0  0  0  0  0
    3.9748   -1.2902   -1.9217 O   0  0  0  0  0  0  0  0  0  0  0  0
  1  2  2  0
  2  3  1  0
  3  4  1  0
  4  5  1  0
  5  6  1  0
  6  7  1  0
  7  8  2  0
  8  9  1  0
  9 10  2  0
 10 11  1  0
 11 12  2  0
  2 13  1  0
 13 14  1  0
 14 15  1  0
 15 16  1  0
 16 17  1  0
 17 18  2  0
 18 19  1  0
 19 20  1  0
 20 21  2  0
 21 22  1  0
 22 23  2  0
 23 24  1  0
 24 25  2  0
 19 26  2  0
 26 27  1  0
  6  4  1  0
 12  7  1  0
 27 17  1  0
 25 20  1  0
M  END
$$$$
