
     RDKit          3D

 29 33  0  0  0  0  0  0  0  0999 V2000
    2.7142    2.1628   -1.2162 O   0  0  0  0  0  0  0  0  0  0  0  0
    2.1444    1.3661   -0.3859 C   0  0  0  0  0  0  0  0  0  0  0  0
    2.9712    0.7455    0.5902 N   0  0  0  0  0  0  0  0  0  0  0  0
    4.3868    0.9309    0.7280 C   0  0  0  0  0  0  0  0  0  0  0  0
    5.1674    1.9335    0.0151 C   0  0  0  0  0  0  0  0  0  0  0  0
    5.2241    0.5491   -0.5255 C   0  0  0  0  0  0  0  0  0  0  0  0
    6.3016   -0.4017   -0.2023 C   0  0  0  0  0  0  0  0  0  0  0  0
    7.4682   -0.4842   -0.9431 C   0  0  0  0  0  0  0  0  0  0  0  0
    8.4196   -1.4050   -0.5854 C   0  0  0  0  0  0  0  0  0  0  0  0
    8.2509   -2.2601    0.4995 C   0  0  0  0  0  0  0  0  0  0  0  0
    7.0785   -2.1714    1.2380 C   0  0  0  0  0  0  0  0  0  0  0  0
    6.1287   -1.2495    0.8775 C   0  0  0  0  0  0  0  0  0  0  0  0
    0.7537    1.1321   -0.4656 N   0  0  0  0  0  0  0  0  0  0  0  0
   -0.0558    1.7554   -1.4735 C   0  0  0  0  0  0  0  0  0  0  0  0
   -0.8779    0.7334   -2.2316 C   0  0  0  0  0  0  0  0  0  0  0  0
   -1.5304   -0.2314   -1.3169 C   0  0  0  0  0  0  0  0  0  0  0  0
   -2.8234    0.1709   -0.7455 C   0  0  0  0  0  0  0  0  0  0  0  0
   -3.8965   -0.6011   -0.4704 N   0  0  0  0  0  0  0  0  0  0  0  0
   -4.9016    0.1206    0.0448 C   0  0  0  0  0  0  0  0  0  0  0  0
   -6.2175   -0.3299    0.4663 C   0  0  0  0  0  0  0  0  0  0  0  0
   -7.1928    0.4928    0.9844 C   0  0  0  0  0  0  0  0  0  0  0  0
   -8.4215   -0.0223    1.3610 C   0  0  0  0  0  0  0  0  0  0  0  0
   -8.7337   -1.3389    1.2430 C   0  0  0  0  0  0  0  0  0  0  0  0
   -7.7160   -2.1512    0.7102 C   0  0  0  0  0  0  0  0  0  0  0  0
   -6.5282   -1.6526    0.3481 N   0  0  0  0  0  0  0  0  0  0  0  0
   -4.4052    1.3912    0.0809 N   0  0  0  0  0  0  0  0  0  0  0  0
   -3.1942    1.3996   -0.3833 O   0  0  0  0  0  0  0  0  0  0  0  0
   -0.6021   -0.8314   -0.3392 C   0  0  0  0  0  0  0  0  0  0  0  0
    0.0874    0.2468    0.4592 C   0  0  0  0  0  0  0  0  0  0  0  0
  1  2  2  0
  2  3  1  0
  3  4  1  0
  4  5  1  0
  5  6  1  0
  6  7  1  0
  7  8  2  0
  8  9  1  0
  9 10  2  0
 10 11  1  0
 11 12  2  0
  2 13  1  0
 13 14  1  0
 14 15  1  0
 15 16  1  0
 16 17  1  0
 17 18  2  0
 18 19  1  0
 19 20  1  0
 20 21  2  0
 21 22  1  0
 22 23  2  0
 23 24  1  0
 24 25  2  0
 19 26  2  0
 26 27  1  0
 16 28  1  0
 28 29  1  0
  6  4  1  0
 12  7  1  0
 29 13  1  0
 27 17  1  0
 25 20  1  0
M  END
$$$$
