
     RDKit          3D

 30 34  0  0  0  0  0  0  0  0999 V2000
    1.8884   -2.0672    0.0415 O   0  0  0  0  0  0  0  0  0  0  0  0
    1.9470   -0.8332   -0.0843 C   0  0  0  0  0  0  0  0  0  0  0  0
    3.0577   -0.1525    0.5356 N   0  0  0  0  0  0  0  0  0  0  0  0
    4.0682   -0.8454    1.2724 C   0  0  0  0  0  0  0  0  0  0  0  0
    4.6906   -0.3000    2.4916 C   0  0  0  0  0  0  0  0  0  0  0  0
    5.5012   -0.4762    1.1778 C   0  0  0  0  0  0  0  0  0  0  0  0
    5.9015    0.8217    0.5706 C   0  0  0  0  0  0  0  0  0  0  0  0
    6.1038    1.9512    1.3415 C   0  0  0  0  0  0  0  0  0  0  0  0
    6.4700    3.1388    0.7740 C   0  0  0  0  0  0  0  0  0  0  0  0
    6.6506    3.2471   -0.5975 C   0  0  0  0  0  0  0  0  0  0  0  0
    6.4443    2.1091   -1.3524 C   0  0  0  0  0  0  0  0  0  0  0  0
    6.0795    0.9278   -0.7839 C   0  0  0  0  0  0  0  0  0  0  0  0
    0.9585   -0.1719   -0.8046 N   0  0  0  0  0  0  0  0  0  0  0  0
   -0.1948   -0.6505   -1.4624 C   0  0  0  0  0  0  0  0  0  0  0  0
   -1.2413   -1.3199   -0.6066 C   0  0  0  0  0  0  0  0  0  0  0  0
   -2.3333   -1.8540   -1.5252 C   0  0  0  0  0  0  0  0  0  0  0  0
   -3.5949   -2.1880   -0.8728 C   0  0  0  0  0  0  0  0  0  0  0  0
   -4.3167   -1.5221   -0.0620 N   0  0  0  0  0  0  0  0  0  0  0  0
   -3.9994   -0.2003    0.4068 C   0  0  0  0  0  0  0  0  0  0  0  0
   -5.0815    0.7153    0.7195 C   0  0  0  0  0  0  0  0  0  0  0  0
   -6.3924    0.3145    0.8481 C   0  0  0  0  0  0  0  0  0  0  0  0
   -7.4059    1.2234    1.1491 C   0  0  0  0  0  0  0  0  0  0  0  0
   -7.0660    2.5477    1.3183 C   0  0  0  0  0  0  0  0  0  0  0  0
   -5.7601    2.9249    1.1868 C   0  0  0  0  0  0  0  0  0  0  0  0
   -4.8007    2.0130    0.8929 N   0  0  0  0  0  0  0  0  0  0  0  0
   -2.8072    0.3102    0.6062 N   0  0  0  0  0  0  0  0  0  0  0  0
   -1.6758   -0.4295    0.3671 O   0  0  0  0  0  0  0  0  0  0  0  0
   -1.3835   -3.0760   -1.6432 C   0  0  0  0  0  0  0  0  0  0  0  0
   -1.0126   -2.7269   -0.2152 C   0  0  0  0  0  0  0  0  0  0  0  0
   -0.6952   -3.4310    0.7095 O   0  0  0  0  0  0  0  0  0  0  0  0
  1  2  2  0
  2  3  1  0
  3  4  1  0
  4  5  1  0
  5  6  1  0
  6  7  1  0
  7  8  2  0
  8  9  1  0
  9 10  2  0
 10 11  1  0
 11 12  2  0
  2 13  1  0
 13 14  1  0
 14 15  1  0
 15 16  1  0
 16 17  1  0
 17 18  2  0
 18 19  1  0
 19 20  1  0
 20 21  2  0
 21 22  1  0
 22 23  2  0
 23 24  1  0
 24 25  2  0
 19 26  2  0
 26 27  1  0
 16 28  1  0
 28 29  1  0
 29 30  2  0
  6  4  1  0
 12  7  1  0
 27 15  1  0
 29 15  1  0
 25 20  1  0
M  END
$$$$
