
     RDKit          3D

 29 32  0  0  0  0  0  0  0  0999 V2000
   -3.7451    2.1946   -1.9837 O   0  0  0  0  0  0  0  0  0  0  0  0
   -2.8738    1.7532   -1.1788 C   0  0  0  0  0  0  0  0  0  0  0  0
   -2.9875    1.9032    0.2788 C   0  0  0  0  0  0  0  0  0  0  0  0
   -3.9359    2.4855    1.1129 C   0  0  0  0  0  0  0  0  0  0  0  0
   -3.7533    2.4650    2.4746 C   0  0  0  0  0  0  0  0  0  0  0  0
   -2.6575    1.8836    3.0302 C   0  0  0  0  0  0  0  0  0  0  0  0
   -1.7130    1.3035    2.1994 C   0  0  0  0  0  0  0  0  0  0  0  0
   -1.8854    1.3172    0.8183 C   0  0  0  0  0  0  0  0  0  0  0  0
   -0.9937    0.7581   -0.2271 C   0  0  0  0  0  0  0  0  0  0  0  0
   -1.6756    1.0634   -1.4746 N   0  0  0  0  0  0  0  0  0  0  0  0
   -1.0932    0.6521   -2.7487 C   0  0  0  0  0  0  0  0  0  0  0  0
   -0.6449   -0.8087   -2.6008 C   0  0  0  0  0  0  0  0  0  0  0  0
   -1.2117   -1.3826   -1.3321 C   0  0  0  0  0  0  0  0  0  0  0  0
   -0.8635   -0.6633   -0.1517 N   0  0  0  0  0  0  0  0  0  0  0  0
    0.2357   -1.1629    0.5965 C   0  0  0  0  0  0  0  0  0  0  0  0
   -0.0480   -2.5140    1.1158 C   0  0  0  0  0  0  0  0  0  0  0  0
   -0.2865   -2.4958    2.5067 O   0  0  0  0  0  0  0  0  0  0  0  0
   -0.1263   -3.7110    0.5761 C   0  0  0  0  0  0  0  0  0  0  0  0
    0.0388   -4.1615   -0.7487 O   0  0  0  0  0  0  0  0  0  0  0  0
    1.0177   -3.9360   -1.7367 C   0  0  0  0  0  0  0  0  0  0  0  0
    1.8878   -2.9195   -1.8151 C   0  0  0  0  0  0  0  0  0  0  0  0
    2.2029   -1.7293   -1.0374 C   0  0  0  0  0  0  0  0  0  0  0  0
    1.5454   -1.0644   -0.1055 C   0  0  0  0  0  0  0  0  0  0  0  0
    2.2906    0.1240    0.4151 C   0  0  0  0  0  0  0  0  0  0  0  0
    3.5934    0.2068   -0.3149 C   0  0  0  0  0  0  0  0  0  0  0  0
    4.4709    1.3431    0.0892 C   0  0  0  0  0  0  0  0  0  0  0  0
    4.8660    1.3263    1.5148 C   0  0  0  0  0  0  0  0  0  0  0  0
    4.5231    2.3511    2.2849 C   0  0  0  0  0  0  0  0  0  0  0  0
    3.8223    3.4184    1.8174 F   0  0  0  0  0  0  0  0  0  0  0  0
  1  2  2  0
  2  3  1  0
  3  4  2  0
  4  5  1  0
  5  6  2  0
  6  7  1  0
  7  8  2  0
  8  9  1  0
  9 10  1  0
 10 11  1  0
 11 12  1  0
 12 13  1  0
 13 14  1  0
 14 15  1  0
 15 16  1  0
 16 17  1  0
 16 18  2  3
 18 19  1  0
 19 20  1  0
 20 21  2  3
 21 22  1  0
 22 23  2  3
 23 24  1  0
 24 25  1  0
 25 26  1  0
 26 27  1  0
 27 28  2  3
 28 29  1  0
 10  2  1  0
  8  3  1  0
 14  9  1  0
 23 15  1  0
M  END
$$$$
