
     RDKit          3D

 24 26  0  0  0  0  0  0  0  0999 V2000
    0.6012    2.5746   -1.5374 O   0  0  0  0  0  0  0  0  0  0  0  0
    0.6178    1.3288   -1.3228 C   0  0  0  0  0  0  0  0  0  0  0  0
   -0.3404    0.3112   -1.0505 N   0  0  0  0  0  0  0  0  0  0  0  0
   -1.6570    0.4188   -0.5000 C   0  0  0  0  0  0  0  0  0  0  0  0
   -2.3160   -0.6473    0.0312 C   0  0  0  0  0  0  0  0  0  0  0  0
   -3.5751   -0.5790    0.5617 C   0  0  0  0  0  0  0  0  0  0  0  0
   -4.2442    0.6381    0.5717 C   0  0  0  0  0  0  0  0  0  0  0  0
   -5.4904    0.6878    1.1010 F   0  0  0  0  0  0  0  0  0  0  0  0
   -3.5955    1.7295    0.0391 C   0  0  0  0  0  0  0  0  0  0  0  0
   -4.4823    3.2576    0.0695 Cl  0  0  0  0  0  0  0  0  0  0  0  0
   -2.3274    1.6342   -0.4887 C   0  0  0  0  0  0  0  0  0  0  0  0
    0.5702   -0.6555   -1.5448 C   0  0  0  0  0  0  0  0  0  0  0  0
    0.7806   -1.8963   -0.7579 C   0  0  0  0  0  0  0  0  0  0  0  0
   -0.2735   -2.6112   -0.2708 C   0  0  0  0  0  0  0  0  0  0  0  0
   -0.0647   -3.7520    0.4549 C   0  0  0  0  0  0  0  0  0  0  0  0
    1.2290   -4.1556    0.6781 C   0  0  0  0  0  0  0  0  0  0  0  0
    2.2772   -3.4164    0.1754 C   0  0  0  0  0  0  0  0  0  0  0  0
    2.0328   -2.3043   -0.5313 N   0  0  0  0  0  0  0  0  0  0  0  0
    1.6749    0.3158   -1.2539 C   0  0  0  0  0  0  0  0  0  0  0  0
    2.2302    0.1299    0.1157 C   0  0  0  0  0  0  0  0  0  0  0  0
    2.8423    1.4208    0.6617 C   0  0  0  0  0  0  0  0  0  0  0  0
    3.8862    1.8028   -0.2350 N   0  0  0  0  0  0  0  0  0  0  0  0
    4.7182    3.2398    0.1950 Cl  0  0  0  0  0  0  0  0  0  0  0  0
    4.9056    0.5280   -0.7715 Cl  0  0  0  0  0  0  0  0  0  0  0  0
  1  2  2  0
  2  3  1  0
  3  4  1  0
  4  5  2  0
  5  6  1  0
  6  7  2  0
  7  8  1  0
  7  9  1  0
  9 10  1  0
  9 11  2  0
  3 12  1  0
 12 13  1  0
 13 14  2  0
 14 15  1  0
 15 16  2  0
 16 17  1  0
 17 18  2  0
 12 19  1  0
 19 20  1  0
 20 21  1  0
 21 22  1  0
 22 23  1  0
 22 24  1  0
 19  2  1  0
 11  4  1  0
 18 13  1  0
M  END
$$$$
