
     RDKit          3D

 29 32  0  0  0  0  0  0  0  0999 V2000
    0.1036   -1.5469   -2.0497 O   0  0  0  0  0  0  0  0  0  0  0  0
   -0.0220   -0.6775   -1.1877 C   0  0  0  0  0  0  0  0  0  0  0  0
   -1.1740   -0.1088   -0.5240 N   0  0  0  0  0  0  0  0  0  0  0  0
   -2.3664   -0.7143   -0.0640 C   0  0  0  0  0  0  0  0  0  0  0  0
   -3.5014    0.0205    0.2209 C   0  0  0  0  0  0  0  0  0  0  0  0
   -4.6769   -0.5755    0.6769 C   0  0  0  0  0  0  0  0  0  0  0  0
   -4.7278   -1.9347    0.8542 C   0  0  0  0  0  0  0  0  0  0  0  0
   -5.8330   -2.5875    1.2896 F   0  0  0  0  0  0  0  0  0  0  0  0
   -3.6238   -2.7056    0.5842 C   0  0  0  0  0  0  0  0  0  0  0  0
   -3.6667   -4.4630    0.8058 Cl  0  0  0  0  0  0  0  0  0  0  0  0
   -2.4808   -2.0780    0.1353 C   0  0  0  0  0  0  0  0  0  0  0  0
   -0.4639    1.1380   -0.6160 C   0  0  0  0  0  0  0  0  0  0  0  0
   -0.7578    2.1967    0.3319 C   0  0  0  0  0  0  0  0  0  0  0  0
    0.2811    2.8308    0.9856 C   0  0  0  0  0  0  0  0  0  0  0  0
    0.0452    3.8618    1.9021 C   0  0  0  0  0  0  0  0  0  0  0  0
   -1.2395    4.2705    2.1750 C   0  0  0  0  0  0  0  0  0  0  0  0
   -2.2576    3.6174    1.5058 C   0  0  0  0  0  0  0  0  0  0  0  0
   -1.9934    2.6295    0.6312 N   0  0  0  0  0  0  0  0  0  0  0  0
    0.7721    0.2747   -0.3322 C   0  0  0  0  0  0  0  0  0  0  0  0
    1.9949    0.6946   -1.0694 C   0  0  0  0  0  0  0  0  0  0  0  0
    2.8383    1.6272   -0.2370 C   0  0  0  0  0  0  0  0  0  0  0  0
    3.8157    0.8890    0.5833 N   0  0  0  0  0  0  0  0  0  0  0  0
    4.7449    0.1938   -0.2859 C   0  0  0  0  0  0  0  0  0  0  0  0
    5.2503   -1.0738    0.3489 C   0  0  0  0  0  0  0  0  0  0  0  0
    5.9129   -0.8203    1.5426 F   0  0  0  0  0  0  0  0  0  0  0  0
    4.1897   -0.1219   -1.5806 N   0  0  0  0  0  0  0  0  0  0  0  0
    2.8136   -0.5135   -1.4138 C   0  0  1  0  0  0  0  0  0  0  0  0
    2.6183   -1.6169   -0.4028 C   0  0  0  0  0  0  0  0  0  0  0  0
    3.4043   -2.7063   -0.7868 F   0  0  0  0  0  0  0  0  0  0  0  0
  1  2  2  0
  2  3  1  0
  3  4  1  0
  4  5  2  0
  5  6  1  0
  6  7  2  0
  7  8  1  0
  7  9  1  0
  9 10  1  0
  9 11  2  0
  3 12  1  0
 12 13  1  0
 13 14  2  0
 14 15  1  0
 15 16  2  0
 16 17  1  0
 17 18  2  0
 12 19  1  0
 19 20  1  0
 20 21  1  0
 21 22  1  0
 22 23  1  0
 23 24  1  0
 24 25  1  0
 23 26  1  0
 26 27  1  0
 27 28  1  1
 28 29  1  0
 19  2  1  0
 11  4  1  0
 18 13  1  0
 27 20  1  0
M  END
$$$$
