
     RDKit          3D

 11 11  0  0  0  0  0  0  0  0999 V2000
   -3.3219   -1.1870   -0.2246 O   0  0  0  0  0  0  0  0  0  0  0  0
   -2.8877   -0.0926    0.1693 C   0  0  0  0  0  0  0  0  0  0  0  0
   -1.4766    0.0372    0.3603 N   0  0  0  0  0  0  0  0  0  0  0  0
   -0.6632   -1.0958    0.0866 C   0  0  0  0  0  0  0  0  0  0  0  0
    0.6497   -1.0814   -0.1980 C   0  0  0  0  0  0  0  0  0  0  0  0
    1.5209    0.0844   -0.2882 C   0  0  0  0  0  0  0  0  0  0  0  0
    2.8389   -0.1008   -0.2200 C   0  0  0  0  0  0  0  0  0  0  0  0
    3.3818   -1.3131   -0.0727 F   0  0  0  0  0  0  0  0  0  0  0  0
   -1.1000    1.3596    0.8207 C   0  0  0  0  0  0  0  0  0  0  0  0
   -0.0150    1.9637    0.0122 C   0  0  0  0  0  0  0  0  0  0  0  0
    1.0732    1.4257   -0.4456 N   0  0  0  0  0  0  0  0  0  0  0  0
  1  2  2  0
  2  3  1  0
  3  4  1  0
  4  5  2  0
  5  6  1  0
  6  7  2  3
  7  8  1  0
  3  9  1  0
  9 10  1  0
 10 11  2  0
 11  6  1  0
M  END
$$$$
