
     RDKit          3D

 11 11  0  0  0  0  0  0  0  0999 V2000
    3.7483   -0.4391    0.2576 O   0  0  0  0  0  0  0  0  0  0  0  0
    2.6930   -0.9549   -0.1595 C   0  0  0  0  0  0  0  0  0  0  0  0
    1.4011   -0.4164    0.0898 N   0  0  0  0  0  0  0  0  0  0  0  0
    0.3539   -1.2082   -0.5058 C   0  0  0  0  0  0  0  0  0  0  0  0
   -0.9414   -0.8684   -0.6269 C   0  0  0  0  0  0  0  0  0  0  0  0
   -1.5844    0.3628   -0.1913 C   0  0  0  0  0  0  0  0  0  0  0  0
   -2.8891    0.3018   -0.0143 C   0  0  0  0  0  0  0  0  0  0  0  0
   -3.5101   -0.8699   -0.2458 F   0  0  0  0  0  0  0  0  0  0  0  0
    1.3456    0.7725    0.8574 C   0  0  0  0  0  0  0  0  0  0  0  0
    0.3025    1.7232    0.4880 C   0  0  0  0  0  0  0  0  0  0  0  0
   -0.9195    1.5965    0.0508 N   0  0  0  0  0  0  0  0  0  0  0  0
  1  2  2  0
  2  3  1  0
  3  4  1  0
  4  5  2  0
  5  6  1  0
  6  7  2  3
  7  8  1  0
  3  9  1  0
  9 10  1  0
 10 11  2  0
 11  6  1  0
M  END
$$$$
