
     RDKit          3D

 23 25  0  0  0  0  0  0  0  0999 V2000
    1.3126    3.3418    2.2502 O   0  0  0  0  0  0  0  0  0  0  0  0
    0.9521    2.3313    1.5850 C   0  0  0  0  0  0  0  0  0  0  0  0
    1.9493    1.9798    0.6002 N   0  0  0  0  0  0  0  0  0  0  0  0
    2.2666    0.7335   -0.0407 C   0  0  0  0  0  0  0  0  0  0  0  0
    3.6128    0.7593   -0.3401 C   0  0  0  0  0  0  0  0  0  0  0  0
    4.1874   -0.3252   -0.9674 C   0  0  0  0  0  0  0  0  0  0  0  0
    5.9107   -0.3353   -1.3704 Cl  0  0  0  0  0  0  0  0  0  0  0  0
    3.4056   -1.4120   -1.2821 C   0  0  0  0  0  0  0  0  0  0  0  0
    2.0553   -1.4069   -0.9676 C   0  0  0  0  0  0  0  0  0  0  0  0
    1.0494   -2.7799   -1.3610 Cl  0  0  0  0  0  0  0  0  0  0  0  0
    1.4635   -0.3360   -0.3426 C   0  0  0  0  0  0  0  0  0  0  0  0
   -0.3108    1.7823    1.9399 N   0  0  0  0  0  0  0  0  0  0  0  0
   -1.3210    0.9495    1.2801 C   0  0  0  0  0  0  0  0  0  0  0  0
   -2.7002    1.2793    1.6209 C   0  0  0  0  0  0  0  0  0  0  0  0
   -3.5970    0.1115    1.4711 C   0  0  0  0  0  0  0  0  0  0  0  0
   -2.6834   -0.6844   -0.0435 S   0  0  0  0  0  0  0  0  0  0  0  0
   -1.1140   -0.0225    0.4412 C   0  0  0  0  0  0  0  0  0  0  0  0
    0.0666   -0.6746   -0.1740 C   0  0  0  0  0  0  0  0  0  0  0  0
   -0.2546   -1.7965   -0.6615 O   0  0  0  0  0  0  0  0  0  0  0  0
   -2.8748   -2.4114   -0.1928 Cl  0  0  0  0  0  0  0  0  0  0  0  0
   -3.4483    0.2334   -1.4705 N   0  0  0  0  0  2  0  0  0  0  0  0
   -4.7792   -0.3153   -1.5612 C   0  0  0  0  0  0  0  0  0  0  0  0
   -5.1485   -1.0019   -0.4132 F   0  0  0  0  0  0  0  0  0  0  0  0
  1  2  2  0
  2  3  1  0
  3  4  1  0
  4  5  2  0
  5  6  1  0
  6  7  1  0
  6  8  2  0
  8  9  1  0
  9 10  1  0
  9 11  2  0
  2 12  1  0
 12 13  1  0
 13 14  1  0
 14 15  1  0
 15 16  1  0
 16 17  1  0
 17 18  1  0
 18 19  2  0
 16 20  1  0
 16 21  1  0
 21 22  1  0
 22 23  1  0
 11  4  1  0
 18 11  1  0
 13 17  2  0
M  CHG  1  21   1
M  RAD  1  21   3
M  END
$$$$
