
     RDKit          3D

 11 11  0  0  0  0  0  0  0  0999 V2000
   -3.3848    0.8314    0.5846 O   0  0  0  0  0  0  0  0  0  0  0  0
   -2.8369   -0.2658    0.2934 C   0  0  0  0  0  0  0  0  0  0  0  0
   -1.4929   -0.3263   -0.1767 N   0  0  0  0  0  0  0  0  0  0  0  0
   -0.8134    0.9169   -0.2961 C   0  0  0  0  0  0  0  0  0  0  0  0
    0.4918    1.1301   -0.3138 C   0  0  0  0  0  0  0  0  0  0  0  0
    1.5547    0.1340   -0.2143 C   0  0  0  0  0  0  0  0  0  0  0  0
    2.8037    0.5578   -0.4433 C   0  0  0  0  0  0  0  0  0  0  0  0
    2.9876    1.8617   -0.7466 F   0  0  0  0  0  0  0  0  0  0  0  0
   -1.0392   -1.6544   -0.4568 C   0  0  0  0  0  0  0  0  0  0  0  0
    0.3226   -1.9380   -0.0142 C   0  0  0  0  0  0  0  0  0  0  0  0
    1.4066   -1.2475    0.1019 N   0  0  0  0  0  0  0  0  0  0  0  0
  1  2  2  0
  2  3  1  0
  3  4  1  0
  4  5  2  0
  5  6  1  0
  6  7  2  3
  7  8  1  0
  3  9  1  0
  9 10  1  0
 10 11  2  0
 11  6  1  0
M  END
$$$$
