
     RDKit          3D

 20 22  0  0  0  0  0  0  0  0999 V2000
    0.4524    3.8522   -0.7180 O   0  0  0  0  0  0  0  0  0  0  0  0
    0.4148    2.6207   -0.4740 C   0  0  0  0  0  0  0  0  0  0  0  0
   -0.9097    2.0795   -0.5007 N   0  0  0  0  0  0  0  0  0  0  0  0
   -1.4121    0.7476   -0.3429 C   0  0  0  0  0  0  0  0  0  0  0  0
   -2.7937    0.8742   -0.2080 C   0  0  0  0  0  0  0  0  0  0  0  0
   -3.5980   -0.2296   -0.0365 C   0  0  0  0  0  0  0  0  0  0  0  0
   -5.3536   -0.0859    0.1363 Cl  0  0  0  0  0  0  0  0  0  0  0  0
   -2.9872   -1.4662   -0.0030 C   0  0  0  0  0  0  0  0  0  0  0  0
   -1.6026   -1.6003   -0.1377 C   0  0  0  0  0  0  0  0  0  0  0  0
   -0.9892   -2.7945   -0.1078 F   0  0  0  0  0  0  0  0  0  0  0  0
   -0.8134   -0.4816   -0.3087 C   0  0  0  0  0  0  0  0  0  0  0  0
    1.7057    2.0250   -0.2220 N   0  0  0  0  0  0  0  0  0  0  0  0
    2.2276    0.8032    0.2622 C   0  0  0  0  0  0  0  0  0  0  0  0
    1.9116    0.4740    1.6789 C   0  0  0  0  0  0  0  0  0  0  0  0
    2.9690   -0.5231    2.0359 C   0  0  0  0  0  0  0  0  0  0  0  0
    2.9687   -1.6024    0.5173 S   0  0  0  0  0  0  0  0  0  0  0  0
    1.9289   -0.3988   -0.5755 C   0  0  0  0  0  0  0  0  0  0  0  0
    0.5716   -0.9293   -0.4187 C   0  0  0  0  0  0  0  0  0  0  0  0
    0.5964   -2.1967   -0.3572 O   0  0  0  0  0  0  0  0  0  0  0  0
    4.7128   -1.1680   -0.2200 F   0  0  0  0  0  0  0  0  0  0  0  0
  1  2  2  0
  2  3  1  0
  3  4  1  0
  4  5  2  0
  5  6  1  0
  6  7  1  0
  6  8  2  0
  8  9  1  0
  9 10  1  0
  9 11  2  0
  2 12  1  0
 12 13  1  0
 13 14  1  0
 14 15  1  0
 15 16  1  0
 16 17  1  0
 17 18  1  0
 18 19  2  0
 16 20  1  0
 11  4  1  0
 18 11  1  0
 17 13  1  0
M  END
$$$$
