
     RDKit          3D

 20 22  0  0  0  0  0  0  0  0999 V2000
   -0.2141    3.7141   -1.2270 O   0  0  0  0  0  0  0  0  0  0  0  0
    0.0387    2.5863   -0.7029 C   0  0  0  0  0  0  0  0  0  0  0  0
   -1.0962    2.0279   -0.0551 N   0  0  0  0  0  0  0  0  0  0  0  0
   -1.5270    0.6858    0.2532 C   0  0  0  0  0  0  0  0  0  0  0  0
   -2.8254    0.7837    0.7097 C   0  0  0  0  0  0  0  0  0  0  0  0
   -3.5223   -0.3506    1.0901 C   0  0  0  0  0  0  0  0  0  0  0  0
   -5.1747   -0.2676    1.6758 Cl  0  0  0  0  0  0  0  0  0  0  0  0
   -2.8650   -1.5549    0.9906 C   0  0  0  0  0  0  0  0  0  0  0  0
   -1.5538   -1.6588    0.5302 C   0  0  0  0  0  0  0  0  0  0  0  0
   -0.9101   -2.8451    0.4336 F   0  0  0  0  0  0  0  0  0  0  0  0
   -0.8708   -0.5251    0.1549 C   0  0  0  0  0  0  0  0  0  0  0  0
    1.3809    2.2266   -0.9245 N   0  0  0  0  0  0  0  0  0  0  0  0
    2.0953    0.9704   -0.8120 C   0  0  0  0  0  0  0  0  0  0  0  0
    3.5371    1.1159   -1.0547 C   0  0  0  0  0  0  0  0  0  0  0  0
    4.3201    0.2789   -0.1086 C   0  0  0  0  0  0  0  0  0  0  0  0
    3.1443   -1.3217   -0.5694 S   0  0  0  0  0  0  0  0  0  0  0  0
    1.7125   -0.2693   -0.5544 C   0  0  0  0  0  0  0  0  0  0  0  0
    0.4554   -0.9388   -0.2756 C   0  0  0  0  0  0  0  0  0  0  0  0
    0.5357   -2.1689   -0.4485 O   0  0  0  0  0  0  0  0  0  0  0  0
    3.3394   -2.4887    0.8946 Cl  0  0  0  0  0  0  0  0  0  0  0  0
  1  2  2  0
  2  3  1  0
  3  4  1  0
  4  5  2  0
  5  6  1  0
  6  7  1  0
  6  8  2  0
  8  9  1  0
  9 10  1  0
  9 11  2  0
  2 12  1  0
 12 13  1  0
 13 14  1  0
 14 15  1  0
 15 16  1  0
 16 17  1  0
 17 18  1  0
 18 19  2  0
 16 20  1  0
 11  4  1  0
 18 11  1  0
 13 17  2  0
M  END
$$$$
