
     RDKit          3D

 22 24  0  0  0  0  0  0  0  0999 V2000
    0.8245    4.1335    0.0462 O   0  0  0  0  0  0  0  0  0  0  0  0
    0.4982    2.9184    0.0483 C   0  0  0  0  0  0  0  0  0  0  0  0
    1.6545    2.0996    0.2030 N   0  0  0  0  0  0  0  0  0  0  0  0
    1.9266    0.6949    0.1400 C   0  0  0  0  0  0  0  0  0  0  0  0
    3.2960    0.5494    0.3510 C   0  0  0  0  0  0  0  0  0  0  0  0
    3.8586   -0.7117    0.3460 C   0  0  0  0  0  0  0  0  0  0  0  0
    5.5844   -0.9494    0.6078 Cl  0  0  0  0  0  0  0  0  0  0  0  0
    3.0315   -1.7902    0.1295 C   0  0  0  0  0  0  0  0  0  0  0  0
    1.6627   -1.6486   -0.0817 C   0  0  0  0  0  0  0  0  0  0  0  0
    0.8430   -2.7000   -0.2949 F   0  0  0  0  0  0  0  0  0  0  0  0
    1.1104   -0.3939   -0.0755 C   0  0  0  0  0  0  0  0  0  0  0  0
   -0.8987    2.6751   -0.0997 N   0  0  0  0  0  0  0  0  0  0  0  0
   -1.7786    1.5221   -0.0921 C   0  0  0  0  0  0  0  0  0  0  0  0
   -3.1727    1.8814    0.0323 C   0  0  0  0  0  0  0  0  0  0  0  0
   -4.0534    0.8199   -0.5051 C   0  0  0  0  0  0  0  0  0  0  0  0
   -3.0351   -0.6652   -0.1097 S   0  0  0  0  0  0  0  0  0  0  0  0
   -1.4689    0.2765   -0.1830 C   0  0  0  0  0  0  0  0  0  0  0  0
   -0.3090   -0.5959   -0.3212 C   0  0  0  0  0  0  0  0  0  0  0  0
   -0.6058   -1.7516   -0.7364 O   0  0  0  0  0  0  0  0  0  0  0  0
   -3.0530   -1.7342   -1.8560 C   0  0  0  0  0  0  0  0  0  0  0  0
   -3.4988   -1.6229    1.0979 C   0  0  0  0  0  0  0  0  0  0  0  0
   -2.4165   -3.0072    1.3533 Cl  0  0  0  0  0  0  0  0  0  0  0  0
  1  2  2  0
  2  3  1  0
  3  4  1  0
  4  5  2  0
  5  6  1  0
  6  7  1  0
  6  8  2  0
  8  9  1  0
  9 10  1  0
  9 11  2  0
  2 12  1  0
 12 13  1  0
 13 14  1  0
 14 15  1  0
 15 16  1  0
 16 17  1  0
 17 18  1  0
 18 19  2  0
 16 20  1  0
 16 21  1  0
 21 22  1  0
 11  4  1  0
 18 11  1  0
 13 17  2  0
M  END
$$$$
