
     RDKit          3D

 27 30  0  0  0  0  0  0  0  0999 V2000
   -0.3965    1.1322   -1.7731 O   0  0  0  0  0  0  0  0  0  0  0  0
   -0.3160    0.7465   -0.5835 C   0  0  0  0  0  0  0  0  0  0  0  0
    0.7274    0.6241    0.3560 N   0  0  0  0  0  0  0  0  0  0  0  0
    1.9357    1.2736    0.6434 C   0  0  0  0  0  0  0  0  0  0  0  0
    2.0389    2.3151    1.5602 C   0  0  0  0  0  0  0  0  0  0  0  0
    3.2268    2.9527    1.8421 C   0  0  0  0  0  0  0  0  0  0  0  0
    4.3806    2.5629    1.2027 C   0  0  0  0  0  0  0  0  0  0  0  0
    5.5867    3.1395    1.4256 F   0  0  0  0  0  0  0  0  0  0  0  0
    4.3293    1.5301    0.2809 C   0  0  0  0  0  0  0  0  0  0  0  0
    5.8047    1.0283   -0.5396 Cl  0  0  0  0  0  0  0  0  0  0  0  0
    3.1275    0.9081    0.0167 C   0  0  0  0  0  0  0  0  0  0  0  0
    0.0131   -0.4900    0.9231 C   0  0  0  0  0  0  0  0  0  0  0  0
    0.3526   -1.7256    0.1788 C   0  0  0  0  0  0  0  0  0  0  0  0
    0.4048   -1.8389   -1.1890 C   0  0  0  0  0  0  0  0  0  0  0  0
    0.7309   -3.0270   -1.8240 C   0  0  0  0  0  0  0  0  0  0  0  0
    1.0129   -4.1339   -1.0560 C   0  0  0  0  0  0  0  0  0  0  0  0
    0.9564   -4.0043    0.3134 C   0  0  0  0  0  0  0  0  0  0  0  0
    0.6354   -2.8315    0.8866 N   0  0  0  0  0  0  0  0  0  0  0  0
   -1.2236    0.2193    0.4808 C   0  0  0  0  0  0  0  0  0  0  0  0
   -2.3436   -0.6449   -0.0286 C   0  0  0  0  0  0  0  0  0  0  0  0
   -3.1625   -1.0917    1.1649 C   0  0  0  0  0  0  0  0  0  0  0  0
   -3.6054    0.1006    1.8548 N   0  0  0  0  0  0  0  0  0  0  0  0
   -4.4268    0.8245    1.0178 N   0  0  0  0  0  0  0  0  0  0  0  0
   -4.4211    0.4576   -0.3073 N   0  0  0  0  0  0  0  0  0  0  0  0
   -5.4726   -0.4230   -0.7134 C   0  0  0  0  0  0  0  0  0  0  0  0
   -6.7099    0.1855   -0.4839 F   0  0  0  0  0  0  0  0  0  0  0  0
   -3.1856    0.2103   -0.8650 N   0  0  0  0  0  0  0  0  0  0  0  0
  1  2  2  0
  2  3  1  0
  3  4  1  0
  4  5  2  0
  5  6  1  0
  6  7  2  0
  7  8  1  0
  7  9  1  0
  9 10  1  0
  9 11  2  0
  3 12  1  0
 12 13  1  0
 13 14  2  0
 14 15  1  0
 15 16  2  0
 16 17  1  0
 17 18  2  0
 12 19  1  0
 19 20  1  0
 20 21  1  0
 21 22  1  0
 22 23  1  0
 23 24  1  0
 24 25  1  0
 25 26  1  0
 24 27  1  0
 19  2  1  0
 11  4  1  0
 18 13  1  0
 27 20  1  0
M  END
$$$$
