
     RDKit          2D

 26 28  0  0  0  0  0  0  0  0999 V2000
    2.4292   -0.7994    0.0000 O   0  0  0  0  0  0  0  0  0  0  0  0
    0.4471    0.1552    0.0000 C   0  0  0  0  0  0  0  0  0  0  0  0
   -0.2508   -0.4013    0.0000 N   0  0  0  0  0  0  0  0  0  0  0  0
   -1.5574   -0.7500    0.0000 C   0  0  0  0  0  0  0  0  0  0  0  0
   -1.5574    0.7500    0.0000 C   0  0  0  0  0  0  0  0  0  0  0  0
   -0.3846    1.6852    0.0000 C   0  0  0  0  0  0  0  0  0  0  0  0
    1.0777    1.3515    0.0000 C   0  0  0  0  0  0  0  0  0  0  0  0
    1.7286    0.0000    0.0000 O   0  0  0  0  0  0  0  0  0  0  0  0
    1.0777   -1.3515    0.0000 C   0  0  0  0  0  0  0  0  0  0  0  0
    1.8593   -1.9495    0.0000 F   0  0  0  0  0  0  0  0  0  0  0  0
   -0.3846   -1.6852    0.0000 C   0  0  0  0  0  0  0  0  0  0  0  0
    0.2388   -2.5462    0.0000 C   0  0  0  0  0  0  0  0  0  0  0  0
    1.6721   -2.9883    0.0000 C   0  0  0  0  0  0  0  0  0  0  0  0
    2.0059   -4.4507    0.0000 C   0  0  0  0  0  0  0  0  0  0  0  0
    3.4393   -4.8928    0.0000 C   0  0  0  0  0  0  0  0  0  0  0  0
    4.5389   -3.8726    0.0000 C   0  0  0  0  0  0  0  0  0  0  0  0
    4.2051   -2.4102    0.0000 C   0  0  0  0  0  0  0  0  0  0  0  0
    2.7717   -1.9680    0.0000 N   0  0  0  0  0  0  0  0  0  0  0  0
   -0.8608   -3.5664    0.0000 C   0  0  0  0  0  0  0  0  0  0  0  0
   -0.5270   -5.0288    0.0000 C   0  0  0  0  0  0  0  0  0  0  0  0
   -1.6266   -6.0491    0.0000 C   0  0  0  0  0  0  0  0  0  0  0  0
   -1.2928   -7.5115    0.0000 N   0  0  0  0  0  0  0  0  0  0  0  0
    0.1405   -7.9536    0.0000 C   0  0  0  0  0  0  0  0  0  0  0  0
    0.4743   -9.4160    0.0000 Cl  0  0  0  0  0  0  0  0  0  0  0  0
   -2.3924   -8.5317    0.0000 C   0  0  0  0  0  0  0  0  0  0  0  0
   -2.0586   -9.9941    0.0000 F   0  0  0  0  0  0  0  0  0  0  0  0
  1  2  2  0
  2  3  1  0
  3  4  1  0
  4  5  2  0
  5  6  1  0
  6  7  2  0
  7  8  1  0
  8  9  1  0
  9 10  1  0
  9 11  2  0
  3 12  1  0
 12 13  1  0
 13 14  2  0
 14 15  1  0
 15 16  2  0
 16 17  1  0
 17 18  2  0
 12 19  1  0
 19 20  1  0
 20 21  1  0
 21 22  1  0
 22 23  1  0
 23 24  1  0
 22 25  1  0
 25 26  1  0
  7  2  1  0
 11  4  1  0
 18 13  1  0
M  END
$$$$
