
     RDKit          3D

 20 22  0  0  0  0  0  0  0  0999 V2000
    0.3253    3.8039    0.4970 O   0  0  0  0  0  0  0  0  0  0  0  0
    0.3110    2.5559    0.4006 C   0  0  0  0  0  0  0  0  0  0  0  0
   -0.9838    1.9568    0.4191 N   0  0  0  0  0  0  0  0  0  0  0  0
   -1.5489    0.6731    0.1695 C   0  0  0  0  0  0  0  0  0  0  0  0
   -2.9166    0.8329    0.1652 C   0  0  0  0  0  0  0  0  0  0  0  0
   -3.7442   -0.2529   -0.0547 C   0  0  0  0  0  0  0  0  0  0  0  0
   -5.4807   -0.0260   -0.0556 Cl  0  0  0  0  0  0  0  0  0  0  0  0
   -3.1536   -1.4807   -0.2659 C   0  0  0  0  0  0  0  0  0  0  0  0
   -1.7856   -1.6366   -0.2610 C   0  0  0  0  0  0  0  0  0  0  0  0
   -1.1779   -2.8287   -0.4652 F   0  0  0  0  0  0  0  0  0  0  0  0
   -0.9477   -0.5492   -0.0405 C   0  0  0  0  0  0  0  0  0  0  0  0
    1.6134    1.9971    0.2916 N   0  0  0  0  0  0  0  0  0  0  0  0
    2.1935    0.6973    0.3114 C   0  0  0  0  0  0  0  0  0  0  0  0
    3.6646    0.6927    0.5419 C   0  0  0  0  0  0  0  0  0  0  0  0
    4.0896   -0.6551   -0.0819 C   0  0  0  0  0  0  0  0  0  0  0  0
    2.8808   -1.4702    0.2986 C   0  0  0  0  0  0  0  0  0  0  0  0
    1.7622   -0.5325    0.1625 C   0  0  0  0  0  0  0  0  0  0  0  0
    0.4103   -1.0740   -0.1035 C   0  0  0  0  0  0  0  0  0  0  0  0
    0.4898   -2.2564   -0.4632 O   0  0  0  0  0  0  0  0  0  0  0  0
    3.9986   -0.4472   -1.4659 F   0  0  0  0  0  0  0  0  0  0  0  0
  1  2  2  0
  2  3  1  0
  3  4  1  0
  4  5  2  0
  5  6  1  0
  6  7  1  0
  6  8  2  0
  8  9  1  0
  9 10  1  0
  9 11  2  0
  2 12  1  0
 12 13  1  0
 13 14  1  0
 14 15  1  0
 15 16  1  0
 16 17  1  0
 17 18  1  0
 18 19  2  0
 15 20  1  0
 11  4  1  0
 18 11  1  0
 13 17  2  0
M  END
$$$$
