
     RDKit          3D

 20 22  0  0  0  0  0  0  0  0999 V2000
   -0.4175    3.4878   -1.7182 O   0  0  0  0  0  0  0  0  0  0  0  0
   -0.1198    2.4820   -1.0194 C   0  0  0  0  0  0  0  0  0  0  0  0
   -1.2865    1.9494   -0.3720 N   0  0  0  0  0  0  0  0  0  0  0  0
   -1.6231    0.6568    0.1610 C   0  0  0  0  0  0  0  0  0  0  0  0
   -2.9678    0.6889    0.4664 C   0  0  0  0  0  0  0  0  0  0  0  0
   -3.6114   -0.4189    1.0067 C   0  0  0  0  0  0  0  0  0  0  0  0
   -5.3221   -0.3893    1.3991 Cl  0  0  0  0  0  0  0  0  0  0  0  0
   -2.8370   -1.5392    1.2176 C   0  0  0  0  0  0  0  0  0  0  0  0
   -1.4847   -1.5872    0.9161 C   0  0  0  0  0  0  0  0  0  0  0  0
   -0.5521   -3.0467    1.2088 Cl  0  0  0  0  0  0  0  0  0  0  0  0
   -0.8670   -0.4757    0.3805 C   0  0  0  0  0  0  0  0  0  0  0  0
    1.2663    2.1664   -1.0709 N   0  0  0  0  0  0  0  0  0  0  0  0
    2.0357    0.9804   -0.8532 C   0  0  0  0  0  0  0  0  0  0  0  0
    3.4441    1.0935   -1.2610 C   0  0  0  0  0  0  0  0  0  0  0  0
    4.3203    0.6444   -0.1384 C   0  0  0  0  0  0  0  0  0  0  0  0
    3.1451   -1.2464   -0.3571 S   0  0  0  0  0  0  0  0  0  0  0  0
    1.7391   -0.1922   -0.3630 C   0  0  0  0  0  0  0  0  0  0  0  0
    0.5334   -0.8171    0.1706 C   0  0  0  0  0  0  0  0  0  0  0  0
    0.7252   -2.0088    0.5817 O   0  0  0  0  0  0  0  0  0  0  0  0
    3.8799   -2.4282   -0.3556 Cl  0  0  0  0  0  0  0  0  0  0  0  0
  1  2  2  0
  2  3  1  0
  3  4  1  0
  4  5  2  0
  5  6  1  0
  6  7  1  0
  6  8  2  0
  8  9  1  0
  9 10  1  0
  9 11  2  0
  2 12  1  0
 12 13  1  0
 13 14  1  0
 14 15  1  0
 15 16  1  0
 16 17  1  0
 17 18  1  0
 18 19  2  0
 16 20  1  0
 11  4  1  0
 18 11  1  0
 13 17  2  0
M  END
$$$$
