
     RDKit          3D

 11 11  0  0  0  0  0  0  0  0999 V2000
   -3.5971    1.1197    0.2697 O   0  0  0  0  0  0  0  0  0  0  0  0
   -2.4743    1.1608    0.8268 C   0  0  0  0  0  0  0  0  0  0  0  0
   -1.2914    0.6727    0.2212 N   0  0  0  0  0  0  0  0  0  0  0  0
   -0.1348    0.8303    1.0538 C   0  0  0  0  0  0  0  0  0  0  0  0
    1.0591    0.2590    0.9163 C   0  0  0  0  0  0  0  0  0  0  0  0
    1.4723   -0.6700   -0.1243 C   0  0  0  0  0  0  0  0  0  0  0  0
    2.7687   -0.8724   -0.2706 C   0  0  0  0  0  0  0  0  0  0  0  0
    3.6019   -0.2025    0.5553 F   0  0  0  0  0  0  0  0  0  0  0  0
   -1.4374    0.1216   -1.0761 C   0  0  0  0  0  0  0  0  0  0  0  0
   -0.5655   -1.0308   -1.3637 C   0  0  0  0  0  0  0  0  0  0  0  0
    0.5985   -1.3884   -1.0085 N   0  0  0  0  0  0  0  0  0  0  0  0
  1  2  2  0
  2  3  1  0
  3  4  1  0
  4  5  2  0
  5  6  1  0
  6  7  2  3
  7  8  1  0
  3  9  1  0
  9 10  1  0
 10 11  2  0
 11  6  1  0
M  END
$$$$
