
     RDKit          3D

 21 23  0  0  0  0  0  0  0  0999 V2000
   -0.0704   -3.4113    2.0803 O   0  0  0  0  0  0  0  0  0  0  0  0
   -0.0229   -2.3513    1.4027 C   0  0  0  0  0  0  0  0  0  0  0  0
   -1.2915   -1.7145    1.2377 N   0  0  0  0  0  0  0  0  0  0  0  0
   -1.7286   -0.5768    0.4908 C   0  0  0  0  0  0  0  0  0  0  0  0
   -3.0480   -0.3476    0.8646 C   0  0  0  0  0  0  0  0  0  0  0  0
   -3.7786    0.6937    0.3218 C   0  0  0  0  0  0  0  0  0  0  0  0
   -5.4418    0.9839    0.7920 Cl  0  0  0  0  0  0  0  0  0  0  0  0
   -3.1432    1.4938   -0.6050 C   0  0  0  0  0  0  0  0  0  0  0  0
   -1.8293    1.2639   -0.9759 C   0  0  0  0  0  0  0  0  0  0  0  0
   -1.1894    2.0434   -1.8877 F   0  0  0  0  0  0  0  0  0  0  0  0
   -1.1117    0.2248   -0.4293 C   0  0  0  0  0  0  0  0  0  0  0  0
    1.2960   -2.0045    0.9377 N   0  0  0  0  0  0  0  0  0  0  0  0
    1.8862   -0.7777    0.5053 C   0  0  0  0  0  0  0  0  0  0  0  0
    3.3319   -0.6340    0.7511 C   0  0  0  0  0  0  0  0  0  0  0  0
    4.1008   -1.0057   -0.4625 C   0  0  0  0  0  0  0  0  0  0  0  0
    2.7511    0.9072   -1.1906 S   0  0  0  0  0  0  0  0  0  0  0  0
    1.5370   -0.3464   -0.8602 C   0  0  0  0  0  0  0  0  0  0  0  0
    0.2264    0.2595   -1.0276 C   0  0  0  0  0  0  0  0  0  0  0  0
    0.2228    1.0852   -1.9981 O   0  0  0  0  0  0  0  0  0  0  0  0
    3.5069    2.0022   -0.6508 C   0  0  0  0  0  0  0  0  0  0  0  0
    3.7962    2.2123    0.7037 F   0  0  0  0  0  0  0  0  0  0  0  0
  1  2  2  0
  2  3  1  0
  3  4  1  0
  4  5  2  0
  5  6  1  0
  6  7  1  0
  6  8  2  0
  8  9  1  0
  9 10  1  0
  9 11  2  0
  2 12  1  0
 12 13  1  0
 13 14  1  0
 14 15  1  0
 15 16  1  0
 16 17  1  0
 17 18  1  0
 18 19  2  0
 16 20  1  0
 20 21  1  0
 11  4  1  0
 18 11  1  0
 17 13  1  0
M  END
$$$$
