
     RDKit          3D

 11 11  0  0  0  0  0  0  0  0999 V2000
   -3.6308   -0.4154    0.0407 O   0  0  0  0  0  0  0  0  0  0  0  0
   -2.8386    0.4697    0.4394 C   0  0  0  0  0  0  0  0  0  0  0  0
   -1.5188    0.4563   -0.0683 N   0  0  0  0  0  0  0  0  0  0  0  0
   -0.6199    1.4824    0.4015 C   0  0  0  0  0  0  0  0  0  0  0  0
    0.7160    1.3392    0.5149 C   0  0  0  0  0  0  0  0  0  0  0  0
    1.5545    0.1906    0.2152 C   0  0  0  0  0  0  0  0  0  0  0  0
    2.8584    0.3082    0.2700 C   0  0  0  0  0  0  0  0  0  0  0  0
    3.6756   -0.7084    0.0060 F   0  0  0  0  0  0  0  0  0  0  0  0
   -1.2135   -0.5896   -1.0112 C   0  0  0  0  0  0  0  0  0  0  0  0
   -0.0732   -1.4321   -0.6621 C   0  0  0  0  0  0  0  0  0  0  0  0
    1.0903   -1.1009   -0.1462 N   0  0  0  0  0  0  0  0  0  0  0  0
  1  2  2  0
  2  3  1  0
  3  4  1  0
  4  5  2  0
  5  6  1  0
  6  7  2  3
  7  8  1  0
  3  9  1  0
  9 10  1  0
 10 11  2  0
 11  6  1  0
M  END
$$$$
