
     RDKit          3D

 29 32  0  0  0  0  0  0  0  0999 V2000
   -2.0233   -0.5888    4.1708 O   0  0  0  0  0  1  0  0  0  0  0  0
   -2.4797   -0.8302    2.8984 C   0  0  0  0  0  0  0  0  0  0  0  0
   -3.6370   -0.0196    2.5375 N   0  0  0  0  0  0  0  0  0  0  0  0
   -4.0040   -0.3757    1.1975 C   0  0  0  0  0  0  0  0  0  0  0  0
   -3.0896   -0.1598    0.0547 C   0  0  0  0  0  0  0  0  0  0  0  0
   -4.3468    0.6167    0.1645 C   0  0  0  0  0  0  0  0  0  0  0  0
   -5.5155    0.2840   -0.6880 C   0  0  0  0  0  0  0  0  0  0  0  0
   -6.7788    0.2121   -0.1430 C   0  0  0  0  0  0  0  0  0  0  0  0
   -7.9060   -0.0900   -0.8690 C   0  0  0  0  0  0  0  0  0  0  0  0
   -7.7849   -0.3370   -2.2134 C   0  0  0  0  0  0  0  0  0  0  0  0
   -6.5398   -0.2755   -2.7979 C   0  0  0  0  0  0  0  0  0  0  0  0
   -5.4042    0.0343   -2.0396 C   0  0  0  0  0  0  0  0  0  0  0  0
   -1.4905   -0.6601    1.8799 N   0  0  0  0  0  0  0  0  0  0  0  0
   -0.9533    0.7024    1.8597 C   0  0  0  0  0  0  0  0  0  0  0  0
    0.0851    0.8253    0.7652 C   0  0  0  0  0  0  0  0  0  0  0  0
    1.1873   -0.1467    1.0341 C   0  0  0  0  0  0  0  0  0  0  0  0
    2.2604   -0.1203    0.0339 C   0  0  0  0  0  0  0  0  0  0  0  0
    3.5601   -0.4501    0.1594 N   0  0  0  0  0  0  0  0  0  0  0  0
    4.1924   -0.2735   -1.0243 C   0  0  0  0  0  0  0  0  0  0  0  0
    5.5997   -0.5152   -1.3143 C   0  0  0  0  0  0  0  0  0  0  0  0
    6.0922   -0.2887   -2.5643 C   0  0  0  0  0  0  0  0  0  0  0  0
    7.4519   -0.5372   -2.7878 C   0  0  0  0  0  0  0  0  0  0  0  0
    8.2393   -0.9965   -1.7527 C   0  0  0  0  0  0  0  0  0  0  0  0
    7.6879   -1.1993   -0.5407 N   0  0  0  0  0  0  0  0  0  0  0  0
    6.3932   -0.9632   -0.3256 N   0  0  0  0  0  0  0  0  0  0  0  0
    3.2272    0.1711   -1.8555 N   0  0  0  0  0  0  0  0  0  0  0  0
    2.0991    0.2546   -1.2151 O   0  0  0  0  0  0  0  0  0  0  0  0
    1.6683   -0.1517    2.4515 C   0  0  0  0  0  0  0  0  0  0  0  0
    2.2097    1.1585    2.9240 C   0  0  0  0  0  0  0  0  0  0  0  0
  1  2  1  0
  2  3  1  0
  3  4  1  0
  4  5  1  0
  5  6  1  0
  6  7  1  0
  7  8  2  0
  8  9  1  0
  9 10  2  0
 10 11  1  0
 11 12  2  0
  2 13  1  0
 13 14  1  0
 14 15  1  0
 15 16  1  0
 16 17  1  0
 17 18  2  0
 18 19  1  0
 19 20  1  0
 20 21  2  0
 21 22  1  0
 22 23  2  0
 23 24  1  0
 24 25  2  0
 19 26  2  0
 26 27  1  0
 16 28  1  0
 28 29  1  0
  6  4  1  0
 12  7  1  0
 27 17  1  0
 25 20  1  0
M  CHG  1   1  -1
M  END
$$$$
