
     RDKit          3D

 24 27  0  0  0  0  0  0  0  0999 V2000
   -0.2626    3.7273   -0.0870 O   0  0  0  0  0  0  0  0  0  0  0  0
    0.0195    2.5053   -0.3050 C   0  0  0  0  0  0  0  0  0  0  0  0
    1.3940    2.2016   -0.3898 N   0  0  0  0  0  0  0  0  0  0  0  0
    2.0316    0.9631   -0.0350 C   0  0  0  0  0  0  0  0  0  0  0  0
    3.3629    1.1347    0.2851 C   0  0  0  0  0  0  0  0  0  0  0  0
    4.0886    0.0084    0.6452 C   0  0  0  0  0  0  0  0  0  0  0  0
    5.7844    0.2661    1.0469 Cl  0  0  0  0  0  0  0  0  0  0  0  0
    3.5039   -1.2180    0.6798 C   0  0  0  0  0  0  0  0  0  0  0  0
    2.1655   -1.3643    0.3541 C   0  0  0  0  0  0  0  0  0  0  0  0
    1.6188   -2.5877    0.3980 F   0  0  0  0  0  0  0  0  0  0  0  0
    1.4189   -0.2712   -0.0065 C   0  0  0  0  0  0  0  0  0  0  0  0
   -1.0522    1.5940   -0.4375 N   0  0  0  0  0  0  0  0  0  0  0  0
   -2.2951    2.3359   -0.6917 C   0  0  0  0  0  0  0  0  0  0  0  0
   -3.1952    2.0474    0.4558 C   0  0  0  0  0  0  0  0  0  0  0  0
   -3.2227    0.6724    0.9716 C   0  0  0  0  0  0  0  0  0  0  0  0
   -2.3827   -0.3390    0.2664 C   0  0  0  0  0  0  0  0  0  0  0  0
   -1.1516    0.2007   -0.3742 C   0  0  0  0  0  0  0  0  0  0  0  0
    0.0407   -0.6074   -0.3149 C   0  0  0  0  0  0  0  0  0  0  0  0
    0.2770   -1.9123   -0.5199 C   0  0  0  0  0  0  0  0  0  0  0  0
   -0.5943   -3.0124   -0.8832 N   0  0  0  0  0  0  0  0  0  0  0  0
   -1.9461   -3.2512   -0.5091 C   0  0  0  0  0  0  0  0  0  0  0  0
   -3.0639   -2.5467   -0.4107 C   0  0  0  0  0  0  0  0  0  0  0  0
   -3.2846   -1.0833   -0.7011 C   0  0  0  0  0  0  0  0  0  0  0  0
   -3.2550    0.5365    2.3231 F   0  0  0  0  0  0  0  0  0  0  0  0
  1  2  2  0
  2  3  1  0
  3  4  1  0
  4  5  2  0
  5  6  1  0
  6  7  1  0
  6  8  2  0
  8  9  1  0
  9 10  1  0
  9 11  2  0
  2 12  1  0
 12 13  1  0
 13 14  1  0
 14 15  1  0
 15 16  1  0
 16 17  1  0
 17 18  1  0
 18 19  2  3
 19 20  1  0
 20 21  1  0
 21 22  2  3
 22 23  1  0
 15 24  1  0
 11  4  1  0
 18 11  1  0
 17 12  1  0
 23 16  1  0
M  END
$$$$
