
     RDKit          3D

 25 26  0  0  0  0  0  0  0  0999 V2000
   -4.2214    2.4246   -1.8067 C   0  0  0  0  0  0  0  0  0  0  0  0
   -4.1262    2.7442   -3.2803 C   0  0  0  0  0  0  0  0  0  0  0  0
   -4.7950    1.5971   -4.0192 C   0  0  0  0  0  0  0  0  0  0  0  0
   -2.7820    2.8634   -3.7586 N   0  0  0  0  0  0  0  0  0  0  0  0
   -1.9796    3.7791   -2.9752 C   0  0  0  0  0  0  0  0  0  0  0  0
   -1.8906    3.3540   -1.5364 C   0  0  0  0  0  0  0  0  0  0  0  0
   -0.5069    3.0668   -1.0719 C   0  0  0  0  0  0  0  0  0  0  0  0
   -0.1002    1.6235   -1.2332 C   0  0  0  0  0  0  0  0  0  0  0  0
   -0.4929    0.9141   -0.0464 N   0  0  0  0  0  0  0  0  0  0  0  0
    0.5233    0.1068    0.5287 C   0  0  0  0  0  0  0  0  0  0  0  0
    1.6524    0.0494    0.0108 O   0  0  0  0  0  0  0  0  0  0  0  0
    0.3012   -0.6634    1.7072 N   0  0  0  0  0  0  0  0  0  0  0  0
    1.3469   -1.4457    2.2314 C   0  0  0  0  0  0  0  0  0  0  0  0
    2.5491   -1.5327    1.7148 C   0  0  0  0  0  0  0  0  0  0  0  0
    3.5725   -2.3650    2.3194 C   0  0  0  0  0  0  0  0  0  0  0  0
    3.2489   -3.1254    3.5378 C   0  0  0  0  0  0  0  0  0  0  0  0
    4.7618   -2.4258    1.7732 C   0  0  0  0  0  0  0  0  0  0  0  0
    5.8504   -3.2171    2.2868 C   0  0  0  0  0  0  0  0  0  0  0  0
    5.6987   -3.9664    3.4000 F   0  0  0  0  0  0  0  0  0  0  0  0
    7.0210   -3.2233    1.6750 C   0  0  0  0  0  0  0  0  0  0  0  0
   -1.7775    0.9397    0.5978 C   0  0  0  0  0  0  0  0  0  0  0  0
   -2.8896    1.3547   -0.2719 C   0  0  0  0  0  0  0  0  0  0  0  0
   -4.1428    0.5498   -0.1561 C   0  0  0  0  0  0  0  0  0  0  0  0
   -3.9258   -0.8984   -0.4891 C   0  0  0  0  0  0  0  0  0  0  0  0
   -2.8958    2.3561   -1.1379 C   0  0  0  0  0  0  0  0  0  0  0  0
  1  2  1  0
  2  3  1  0
  2  4  1  0
  4  5  1  0
  5  6  1  0
  6  7  1  0
  7  8  1  0
  8  9  1  0
  9 10  1  0
 10 11  2  0
 10 12  1  0
 12 13  1  0
 13 14  2  3
 14 15  1  0
 15 16  1  0
 15 17  2  3
 17 18  1  0
 18 19  1  0
 18 20  2  0
  9 21  1  0
 21 22  1  0
 22 23  1  0
 23 24  1  0
  6 25  1  0
 25  1  1  0
 22 25  2  0
M  END
$$$$
