
     RDKit          3D

 24 26  0  0  0  0  0  0  0  0999 V2000
   -0.3700    2.5802   -1.2557 O   0  0  0  0  0  0  0  0  0  0  0  0
   -0.6786    1.4645   -0.7973 C   0  0  0  0  0  0  0  0  0  0  0  0
    0.2183    0.3466   -0.5424 N   0  0  0  0  0  0  0  0  0  0  0  0
    1.5362    0.3013   -0.0926 C   0  0  0  0  0  0  0  0  0  0  0  0
    1.9391    0.9129    1.1031 C   0  0  0  0  0  0  0  0  0  0  0  0
    3.2371    0.8695    1.5635 C   0  0  0  0  0  0  0  0  0  0  0  0
    4.2062    0.2140    0.8582 C   0  0  0  0  0  0  0  0  0  0  0  0
    5.5000    0.1312    1.2488 F   0  0  0  0  0  0  0  0  0  0  0  0
    3.8473   -0.3983   -0.3214 C   0  0  0  0  0  0  0  0  0  0  0  0
    4.7507   -1.0647   -1.0706 F   0  0  0  0  0  0  0  0  0  0  0  0
    2.5395   -0.3521   -0.7817 C   0  0  0  0  0  0  0  0  0  0  0  0
   -0.9109   -0.4703   -0.9626 C   0  0  0  0  0  0  0  0  0  0  0  0
   -0.9873   -1.8254   -0.4307 C   0  0  0  0  0  0  0  0  0  0  0  0
   -0.7271   -2.1989    0.8569 C   0  0  0  0  0  0  0  0  0  0  0  0
   -0.8374   -3.4954    1.2661 C   0  0  0  0  0  0  0  0  0  0  0  0
   -1.2232   -4.4664    0.3585 C   0  0  0  0  0  0  0  0  0  0  0  0
   -1.4882   -4.0957   -0.9476 C   0  0  0  0  0  0  0  0  0  0  0  0
   -1.3629   -2.8193   -1.2814 N   0  0  0  0  0  0  0  0  0  0  0  0
   -1.7268    0.5988   -0.3075 C   0  0  0  0  0  0  0  0  0  0  0  0
   -3.0984    0.7855   -0.4403 C   0  0  0  0  0  0  0  0  0  0  0  0
   -3.8284    1.8689    0.1360 C   0  0  0  0  0  0  0  0  0  0  0  0
   -3.4639    3.2225   -0.1356 N   0  0  0  0  0  0  0  0  0  0  0  0
   -4.8618    4.1790    0.4635 Cl  0  0  0  0  0  0  0  0  0  0  0  0
   -2.2093    3.7117    1.0650 Cl  0  0  0  0  0  0  0  0  0  0  0  0
  1  2  2  0
  2  3  1  0
  3  4  1  0
  4  5  2  0
  5  6  1  0
  6  7  2  0
  7  8  1  0
  7  9  1  0
  9 10  1  0
  9 11  2  0
  3 12  1  0
 12 13  1  0
 13 14  2  0
 14 15  1  0
 15 16  2  0
 16 17  1  0
 17 18  2  0
 12 19  1  0
 19 20  1  0
 20 21  1  0
 21 22  1  0
 22 23  1  0
 22 24  1  0
 19  2  1  0
 11  4  1  0
 18 13  1  0
M  END
$$$$
