
     RDKit          3D

 23 25  0  0  0  0  0  0  0  0999 V2000
    1.3870   -0.6952   -1.4123 O   0  0  0  0  0  0  0  0  0  0  0  0
    1.2430   -0.3062   -0.2220 C   0  0  0  0  0  0  0  0  0  0  0  0
    0.0693   -0.3983    0.6250 N   0  0  0  0  0  0  0  0  0  0  0  0
   -0.9739   -1.3548    0.7112 C   0  0  0  0  0  0  0  0  0  0  0  0
   -0.8839   -2.6047    0.1371 C   0  0  0  0  0  0  0  0  0  0  0  0
   -1.8883   -3.5431    0.2108 C   0  0  0  0  0  0  0  0  0  0  0  0
   -3.0580   -3.2510    0.8854 C   0  0  0  0  0  0  0  0  0  0  0  0
   -4.0924   -4.1509    0.9856 F   0  0  0  0  0  0  0  0  0  0  0  0
   -3.1689   -2.0115    1.4652 C   0  0  0  0  0  0  0  0  0  0  0  0
   -4.6753   -1.6362    2.3238 Cl  0  0  0  0  0  0  0  0  0  0  0  0
   -2.1461   -1.0762    1.3812 C   0  0  0  0  0  0  0  0  0  0  0  0
    0.5357    0.8350    1.2168 C   0  0  0  0  0  0  0  0  0  0  0  0
    0.1932    1.9988    0.3671 C   0  0  0  0  0  0  0  0  0  0  0  0
   -0.2043    3.2009    0.9020 C   0  0  0  0  0  0  0  0  0  0  0  0
   -0.5365    4.3051    0.1482 C   0  0  0  0  0  0  0  0  0  0  0  0
   -0.4720    4.2145   -1.2469 C   0  0  0  0  0  0  0  0  0  0  0  0
   -0.0731    3.0026   -1.7425 C   0  0  0  0  0  0  0  0  0  0  0  0
    0.2483    1.9376   -1.0039 N   0  0  0  0  0  0  0  0  0  0  0  0
    1.9294    0.3420    0.8965 C   0  0  0  0  0  0  0  0  0  0  0  0
    2.9284    1.4051    0.6254 C   0  0  0  0  0  0  0  0  0  0  0  0
    4.0222    0.8952   -0.1953 C   0  0  0  0  0  0  0  0  0  0  0  0
    4.1351   -0.3078   -0.6106 N   0  0  0  0  0  0  0  0  0  0  0  0
    5.4811   -0.8011   -1.5823 Cl  0  0  0  0  0  0  0  0  0  0  0  0
  1  2  2  0
  2  3  1  0
  3  4  1  0
  4  5  2  0
  5  6  1  0
  6  7  2  0
  7  8  1  0
  7  9  1  0
  9 10  1  0
  9 11  2  0
  3 12  1  0
 12 13  1  0
 13 14  2  0
 14 15  1  0
 15 16  2  0
 16 17  1  0
 17 18  2  0
 12 19  1  0
 19 20  1  0
 20 21  1  0
 21 22  2  3
 22 23  1  0
 19  2  1  0
 11  4  1  0
 18 13  1  0
M  END
$$$$
