
     RDKit          3D

 19 20  0  0  0  0  0  0  0  0999 V2000
    2.0737   -1.4906   -1.6548 O   0  0  0  0  0  0  0  0  0  0  0  0
    1.7072   -1.3441   -0.4307 C   0  0  0  0  0  0  0  0  0  0  0  0
    0.4526   -1.6423   -0.0161 N   0  0  0  0  0  0  0  0  0  0  0  0
   -0.7866   -1.0499    0.1792 C   0  0  0  0  0  0  0  0  0  0  0  0
   -1.7936   -1.9046    0.6708 C   0  0  0  0  0  0  0  0  0  0  0  0
   -3.0780   -1.5233    0.9065 C   0  0  0  0  0  0  0  0  0  0  0  0
   -4.3030   -2.6144    1.5185 Cl  0  0  0  0  0  0  0  0  0  0  0  0
   -3.4478   -0.2269    0.6586 C   0  0  0  0  0  0  0  0  0  0  0  0
   -2.5084    0.6496    0.1795 C   0  0  0  0  0  0  0  0  0  0  0  0
   -3.0307    2.2960   -0.1462 Cl  0  0  0  0  0  0  0  0  0  0  0  0
   -1.1810    0.2410   -0.0589 C   0  0  0  0  0  0  0  0  0  0  0  0
    2.6843   -0.8594    0.4533 N   0  0  0  0  0  0  0  0  0  0  0  0
    2.7907    0.3378    1.1918 C   0  0  0  0  0  0  0  0  0  0  0  0
    3.9070    1.2463    0.7373 C   0  0  0  0  0  0  0  0  0  0  0  0
    3.9858    1.2792   -0.7857 C   0  0  0  0  0  0  0  0  0  0  0  0
    2.3331    1.8287   -1.3588 S   0  0  0  0  0  0  0  0  0  0  0  0
    1.1494    1.4132   -0.1020 C   0  0  0  0  0  0  0  0  0  0  0  0
   -0.2527    1.2761   -0.5468 C   0  0  0  0  0  0  0  0  0  0  0  0
   -0.7019    2.0876   -1.3954 O   0  0  0  0  0  0  0  0  0  0  0  0
  1  2  2  0
  2  3  1  0
  3  4  1  0
  4  5  2  0
  5  6  1  0
  6  7  1  0
  6  8  2  0
  8  9  1  0
  9 10  1  0
  9 11  2  0
  2 12  1  0
 12 13  1  0
 13 14  1  0
 14 15  1  0
 15 16  1  0
 16 17  1  0
 17 18  1  0
 18 19  2  0
 11  4  1  0
 18 11  1  0
M  END
$$$$
