
     RDKit          3D

 20 23  0  0  0  0  0  0  0  0999 V2000
   -1.1440    3.7185   -0.5655 O   0  0  0  0  0  0  0  0  0  0  0  0
   -0.8577    2.5005   -0.4538 C   0  0  0  0  0  0  0  0  0  0  0  0
    0.5388    2.3089   -0.2180 N   0  0  0  0  0  0  0  0  0  0  0  0
    1.2841    1.1032   -0.0366 C   0  0  0  0  0  0  0  0  0  0  0  0
    2.5696    1.5041    0.2452 C   0  0  0  0  0  0  0  0  0  0  0  0
    3.5832    0.6088    0.4826 C   0  0  0  0  0  0  0  0  0  0  0  0
    5.2191    1.1213    0.8412 Cl  0  0  0  0  0  0  0  0  0  0  0  0
    3.2894   -0.7278    0.4339 C   0  0  0  0  0  0  0  0  0  0  0  0
    2.0080   -1.1595    0.1534 C   0  0  0  0  0  0  0  0  0  0  0  0
    1.7695   -2.4923    0.1169 F   0  0  0  0  0  0  0  0  0  0  0  0
    0.9897   -0.2596   -0.0851 C   0  0  0  0  0  0  0  0  0  0  0  0
   -1.9971    1.6322   -0.5911 N   0  0  0  0  0  0  0  0  0  0  0  0
   -2.2257    0.3528    0.0912 C   0  0  0  0  0  0  0  0  0  0  0  0
   -3.6794    0.0230    0.1801 C   0  0  0  0  0  0  0  0  0  0  0  0
   -3.7041   -1.4214    0.4005 C   0  0  0  0  0  0  0  0  0  0  0  0
   -2.4478   -1.9508   -0.1160 C   0  0  0  0  0  0  0  0  0  0  0  0
   -1.6477   -0.8011   -0.6585 C   0  0  0  0  0  0  0  0  0  0  0  0
   -0.2090   -1.0499   -0.3427 C   0  0  0  0  0  0  0  0  0  0  0  0
   -0.0035   -2.2935   -0.2908 O   0  0  0  0  0  0  0  0  0  0  0  0
   -3.3356   -2.7175    0.4132 N   0  0  0  0  0  4  0  0  0  0  0  0
  1  2  2  0
  2  3  1  0
  3  4  1  0
  4  5  2  0
  5  6  1  0
  6  7  1  0
  6  8  2  0
  8  9  1  0
  9 10  1  0
  9 11  2  0
  2 12  1  0
 12 13  1  0
 13 14  1  0
 14 15  1  0
 15 16  1  0
 16 17  1  0
 17 18  1  0
 18 19  2  0
 15 20  2  0
 11  4  1  0
 18 11  1  0
 17 13  1  0
 16 20  2  0
M  CHG  1  20   1
M  END
$$$$
