
     RDKit          3D

 23 25  0  0  0  0  0  0  0  0999 V2000
    4.0062   -0.6808   -0.3790 C   0  0  0  0  0  0  0  0  0  0  0  0
    3.6087   -1.6919    0.6766 C   0  0  0  0  0  0  0  0  0  0  0  0
    3.4208   -3.0708    0.1349 C   0  0  0  0  0  0  0  0  0  0  0  0
    2.4539   -1.2271    1.3914 N   0  0  0  0  0  0  0  0  0  0  0  0
    1.2820   -1.0702    0.5719 C   0  0  0  0  0  0  0  0  0  0  0  0
    1.4601    0.0704   -0.4193 C   0  0  0  0  0  0  0  0  0  0  0  0
    1.7124    1.3675    0.3514 C   0  0  0  0  0  0  0  0  0  0  0  0
    0.8843    2.4244   -0.2934 C   0  0  0  0  0  0  0  0  0  0  0  0
   -0.1033    2.9024    0.6246 N   0  0  0  0  0  0  0  0  0  0  0  0
   -1.4165    2.3645    0.8038 C   0  0  0  0  0  0  0  0  0  0  0  0
   -2.2975    3.3172    0.7428 O   0  0  0  0  0  0  0  0  0  0  0  0
   -1.6170    1.0388    1.0059 N   0  0  0  0  0  0  0  0  0  0  0  0
   -1.7588   -0.1514    0.3083 C   0  0  0  0  0  0  0  0  0  0  0  0
   -2.7615   -1.1147    0.5879 C   0  0  0  0  0  0  0  0  0  0  0  0
   -2.9310   -2.2726   -0.0662 C   0  0  0  0  0  0  0  0  0  0  0  0
   -4.0270   -3.2307    0.3041 C   0  0  0  0  0  0  0  0  0  0  0  0
   -2.1004   -2.5898   -1.0837 C   0  0  0  0  0  0  0  0  0  0  0  0
   -1.1056   -1.7392   -1.4337 C   0  0  0  0  0  0  0  0  0  0  0  0
   -0.3064   -2.1068   -2.4597 F   0  0  0  0  0  0  0  0  0  0  0  0
   -0.9391   -0.5280   -0.7389 C   0  0  0  0  0  0  0  0  0  0  0  0
    0.9062    3.9168    1.0193 C   0  0  0  0  0  0  0  0  0  0  0  0
    1.4229    3.7999   -0.4031 C   0  0  0  0  0  0  0  0  0  0  0  0
    0.2064    0.2721   -1.2459 C   0  0  0  0  0  0  0  0  0  0  0  0
  1  2  1  0
  2  3  1  0
  2  4  1  0
  4  5  1  0
  5  6  1  0
  6  7  1  0
  7  8  1  0
  8  9  1  0
  9 10  1  0
 10 11  2  0
 10 12  1  0
 12 13  1  0
 13 14  2  0
 14 15  1  0
 15 16  1  0
 15 17  2  0
 17 18  1  0
 18 19  1  0
 18 20  2  0
  9 21  1  0
 21 22  1  0
  6 23  1  0
 22  8  1  0
 20 13  1  0
 23 20  1  0
M  END
$$$$
