
     RDKit          3D

 24 26  0  0  0  0  0  0  0  0999 V2000
    0.8701   -0.0333   -0.5918 O   0  0  0  0  0  0  0  0  0  0  0  0
    0.4550   -0.9285    0.1758 C   0  0  0  0  0  0  0  0  0  0  0  0
    1.3593   -1.5113    1.0635 N   0  0  0  0  0  0  0  0  0  0  0  0
    2.7666   -1.0961    1.1158 C   0  0  0  0  0  0  0  0  0  0  0  0
    3.6808   -2.1836    0.5139 C   0  0  0  0  0  0  0  0  0  0  0  0
    3.4530   -0.7911   -0.1640 C   0  0  0  0  0  0  0  0  0  0  0  0
    4.6822    0.0275   -0.1265 C   0  0  0  0  0  0  0  0  0  0  0  0
    4.9226    1.0215   -1.0790 C   0  0  0  0  0  0  0  0  0  0  0  0
    6.0734    1.7737   -1.0320 C   0  0  0  0  0  0  0  0  0  0  0  0
    7.0123    1.5821   -0.0680 C   0  0  0  0  0  0  0  0  0  0  0  0
    6.8109    0.6108    0.8904 C   0  0  0  0  0  0  0  0  0  0  0  0
    5.6519   -0.1421    0.8381 C   0  0  0  0  0  0  0  0  0  0  0  0
   -0.9312   -1.3292    0.1245 N   0  0  0  0  0  0  0  0  0  0  0  0
   -1.8067   -0.6703   -0.8255 C   0  0  0  0  0  0  0  0  0  0  0  0
   -3.2066   -1.1753   -0.7376 C   0  0  0  0  0  0  0  0  0  0  0  0
   -3.7096   -0.9409    0.6426 C   0  0  0  0  0  0  0  0  0  0  0  0
   -5.1247   -1.3591    0.8313 C   0  0  0  0  0  0  0  0  0  0  0  0
   -6.2774   -0.7977    0.5489 N   0  0  0  0  0  0  0  0  0  0  0  0
   -6.5798    0.4355   -0.0484 C   0  0  0  0  0  0  0  0  0  0  0  0
   -5.9902    1.5206   -0.3713 N   0  0  0  0  0  0  0  0  0  0  0  0
   -4.6932    1.9858   -0.2637 O   0  0  0  0  0  0  0  0  0  0  0  0
   -3.3456    0.3572    1.2657 C   0  0  0  0  0  0  0  0  0  0  0  0
   -3.5397    1.5012    0.3305 C   0  0  0  0  0  0  0  0  0  0  0  0
   -2.5332    2.1426    0.0118 O   0  0  0  0  0  0  0  0  0  0  0  0
  1  2  2  0
  2  3  1  0
  3  4  1  0
  4  5  1  0
  5  6  1  0
  6  7  1  0
  7  8  2  0
  8  9  1  0
  9 10  2  0
 10 11  1  0
 11 12  2  0
  2 13  1  0
 13 14  1  0
 14 15  1  0
 15 16  1  0
 16 17  1  0
 17 18  2  3
 18 19  1  0
 19 20  2  3
 20 21  1  0
 16 22  1  0
 22 23  1  0
 23 24  2  0
  6  4  1  0
 12  7  1  0
 23 21  1  0
M  END
$$$$
