
     RDKit          3D

 20 22  0  0  0  0  0  0  0  0999 V2000
    0.0197    3.8454    0.0395 O   0  0  0  0  0  0  0  0  0  0  0  0
    0.1036    2.5754   -0.0810 C   0  0  0  0  0  0  0  0  0  0  0  0
   -1.1723    1.9489    0.1353 N   0  0  0  0  0  0  0  0  0  0  0  0
   -1.6382    0.6134    0.0906 C   0  0  0  0  0  0  0  0  0  0  0  0
   -3.0257    0.6585    0.1964 C   0  0  0  0  0  0  0  0  0  0  0  0
   -3.7918   -0.4878    0.1851 C   0  0  0  0  0  0  0  0  0  0  0  0
   -5.5408   -0.4471    0.3175 Cl  0  0  0  0  0  0  0  0  0  0  0  0
   -3.1260   -1.6896    0.0642 C   0  0  0  0  0  0  0  0  0  0  0  0
   -1.7454   -1.7384   -0.0413 C   0  0  0  0  0  0  0  0  0  0  0  0
   -1.0769   -2.9153   -0.1609 F   0  0  0  0  0  0  0  0  0  0  0  0
   -0.9769   -0.5908   -0.0301 C   0  0  0  0  0  0  0  0  0  0  0  0
    1.4218    2.1403   -0.3924 N   0  0  0  0  0  0  0  0  0  0  0  0
    2.1325    0.9048   -0.1700 C   0  0  0  0  0  0  0  0  0  0  0  0
    3.6025    1.0123   -0.0057 C   0  0  0  0  0  0  0  0  0  0  0  0
    4.0866   -0.3742   -0.2602 C   0  0  0  0  0  0  0  0  0  0  0  0
    2.9192   -1.2423    0.1633 C   0  0  0  0  0  0  0  0  0  0  0  0
    1.7468   -0.3556   -0.0739 C   0  0  0  0  0  0  0  0  0  0  0  0
    0.4195   -0.9964   -0.1580 C   0  0  0  0  0  0  0  0  0  0  0  0
    0.4966   -2.2277   -0.4073 O   0  0  0  0  0  0  0  0  0  0  0  0
    5.1452   -0.6337    0.5890 F   0  0  0  0  0  0  0  0  0  0  0  0
  1  2  2  0
  2  3  1  0
  3  4  1  0
  4  5  2  0
  5  6  1  0
  6  7  1  0
  6  8  2  0
  8  9  1  0
  9 10  1  0
  9 11  2  0
  2 12  1  0
 12 13  1  0
 13 14  1  0
 14 15  1  0
 15 16  1  0
 16 17  1  0
 17 18  1  0
 18 19  2  0
 15 20  1  0
 11  4  1  0
 18 11  1  0
 13 17  2  0
M  END
$$$$
