
     RDKit          3D

 27 28  0  0  0  0  0  0  0  0999 V2000
   -5.8901    0.2618    1.6869 C   0  0  0  0  0  0  0  0  0  0  0  0
   -5.4598    1.7048    1.3987 C   0  0  0  0  0  0  0  0  0  0  0  0
   -3.9348    1.6495    1.2526 C   0  0  2  0  0  0  0  0  0  0  0  0
   -3.4051    3.0650    0.9562 C   0  0  0  0  0  0  0  0  0  0  0  0
   -3.5431    0.7993    0.1151 C   0  0  0  0  0  0  0  0  0  0  0  0
   -2.1755    0.6056   -0.1657 N   0  0  0  0  0  0  0  0  0  0  0  0
   -1.6267   -0.6542   -0.5719 C   0  0  0  0  0  0  0  0  0  0  0  0
   -2.4664   -1.5770   -0.6648 O   0  0  0  0  0  0  0  0  0  0  0  0
   -0.2623   -0.7654   -0.8192 N   0  0  0  0  0  0  0  0  0  0  0  0
    0.5994    0.4083   -0.6568 C   0  0  0  0  0  0  0  0  0  0  0  0
    1.4081    0.0962    0.6061 C   0  0  0  0  0  0  0  0  0  0  0  0
    1.8226   -1.3269    0.6126 C   0  0  0  0  0  0  0  0  0  0  0  0
    1.8025   -1.9484   -0.7194 C   0  0  0  0  0  0  0  0  0  0  0  0
    0.3745   -1.9860   -1.2414 C   0  0  0  0  0  0  0  0  0  0  0  0
    3.0133   -1.5775    1.4613 C   0  0  0  0  0  0  0  0  0  0  0  0
    4.1195   -0.7902    0.9759 N   0  0  0  0  0  0  0  0  0  0  0  0
    3.9201    0.6396    1.2173 C   0  0  0  0  0  0  0  0  0  0  0  0
    4.2269    1.4065   -0.0755 C   0  0  0  0  0  0  0  0  0  0  0  0
    5.2253   -1.4361    0.3877 C   0  0  0  0  0  0  0  0  0  0  0  0
    6.2912   -0.8716   -0.1620 C   0  0  0  0  0  0  0  0  0  0  0  0
    6.5841    0.5584   -0.2887 C   0  0  0  0  0  0  0  0  0  0  0  0
    5.7043    1.5219   -0.2533 C   0  0  0  0  0  0  0  0  0  0  0  0
    6.3308    3.1564   -0.4243 Cl  0  0  0  0  0  0  0  0  0  0  0  0
   -4.5200    0.4624   -0.8820 C   0  0  0  0  0  0  0  0  0  0  0  0
   -5.1971   -0.6652   -0.9742 C   0  0  0  0  0  0  0  0  0  0  0  0
   -6.1456   -0.8322   -2.0463 C   0  0  0  0  0  0  0  0  0  0  0  0
   -6.7958   -1.9053   -2.1325 O   0  0  0  0  0  0  0  0  0  0  0  0
  1  2  1  0
  2  3  1  0
  3  4  1  6
  3  5  1  0
  5  6  1  0
  6  7  1  0
  7  8  2  0
  7  9  1  0
  9 10  1  0
 10 11  1  0
 11 12  1  0
 12 13  1  0
 13 14  1  0
 12 15  1  0
 15 16  1  0
 16 17  1  0
 17 18  1  0
 16 19  1  0
 19 20  2  0
 20 21  1  0
 21 22  2  0
 22 23  1  0
  5 24  1  0
 24 25  2  3
 25 26  1  0
 26 27  2  0
 14  9  1  0
 22 18  1  0
M  END
$$$$
