
     RDKit          3D

 11 11  0  0  0  0  0  0  0  0999 V2000
   -3.3578    1.1290    0.5431 O   0  0  0  0  0  0  0  0  0  0  0  0
   -2.9465    0.0895   -0.0349 C   0  0  0  0  0  0  0  0  0  0  0  0
   -1.5857   -0.2769    0.2112 N   0  0  0  0  0  0  0  0  0  0  0  0
   -0.8078    0.5506    1.0802 C   0  0  0  0  0  0  0  0  0  0  0  0
    0.5141    0.8027    1.0522 C   0  0  0  0  0  0  0  0  0  0  0  0
    1.4811    0.2711    0.0982 C   0  0  0  0  0  0  0  0  0  0  0  0
    2.7521    0.5840    0.2894 C   0  0  0  0  0  0  0  0  0  0  0  0
    3.7137    0.1318   -0.5502 F   0  0  0  0  0  0  0  0  0  0  0  0
   -1.0875   -1.4642   -0.4377 C   0  0  0  0  0  0  0  0  0  0  0  0
    0.1293   -1.2646   -1.2297 C   0  0  0  0  0  0  0  0  0  0  0  0
    1.1951   -0.5531   -1.0218 N   0  0  0  0  0  0  0  0  0  0  0  0
  1  2  2  0
  2  3  1  0
  3  4  1  0
  4  5  2  0
  5  6  1  0
  6  7  2  3
  7  8  1  0
  3  9  1  0
  9 10  1  0
 10 11  2  0
 11  6  1  0
M  END
$$$$
