
     RDKit          3D

 27 29  0  0  0  0  0  0  0  0999 V2000
   -1.6660   -0.6723    0.3042 O   0  0  0  0  0  0  0  0  0  0  0  0
   -1.4564   -0.2858   -0.8605 C   0  0  0  0  0  0  0  0  0  0  0  0
   -2.2196    0.7989   -1.3629 N   0  0  0  0  0  0  0  0  0  0  0  0
   -3.1863    1.3897   -0.5092 C   0  0  0  0  0  0  0  0  0  0  0  0
   -3.9190    2.4429   -1.0144 C   0  0  0  0  0  0  0  0  0  0  0  0
   -4.8857    3.1107   -0.3071 C   0  0  0  0  0  0  0  0  0  0  0  0
   -5.7840    4.4462   -1.0107 Cl  0  0  0  0  0  0  0  0  0  0  0  0
   -5.1235    2.6806    0.9981 C   0  0  0  0  0  0  0  0  0  0  0  0
   -4.4117    1.6313    1.5387 C   0  0  0  0  0  0  0  0  0  0  0  0
   -4.6984    1.2715    2.8101 F   0  0  0  0  0  0  0  0  0  0  0  0
   -3.4513    0.9986    0.7774 C   0  0  0  0  0  0  0  0  0  0  0  0
   -0.4577   -0.9607   -1.6196 N   0  0  0  0  0  0  0  0  0  0  0  0
    0.3136   -2.0522   -1.1206 C   0  0  0  0  0  0  0  0  0  0  0  0
    1.1275   -1.6821    0.1026 C   0  0  0  0  0  0  0  0  0  0  0  0
    1.9087   -2.9296    0.5431 C   0  0  0  0  0  0  0  0  0  0  0  0
    1.8926   -4.2779    1.5844 S   0  0  0  0  0  0  0  0  0  0  0  0
    3.4980   -5.0208    1.0979 C   0  0  0  0  0  0  0  0  0  0  0  0
    3.8834   -4.0385    0.0938 C   0  0  0  0  0  0  0  0  0  0  0  0
    3.0729   -3.0337   -0.1419 C   0  0  0  0  0  0  0  0  0  0  0  0
    3.1211   -1.8235   -1.0979 C   0  0  0  0  0  0  0  0  0  0  0  0
    2.2782   -0.8117   -0.3543 C   0  0  0  0  0  0  0  0  0  0  0  0
    1.8240    0.1465   -1.3679 N   0  0  0  0  0  0  0  0  0  0  0  0
    2.7174    1.0779   -1.9571 C   0  0  0  0  0  0  0  0  0  0  0  0
    3.7140    1.6416   -1.2822 C   0  0  0  0  0  0  0  0  0  0  0  0
    3.9526    1.3189    0.1619 C   0  0  0  0  0  0  0  0  0  0  0  0
    3.8412    2.5048    0.8793 O   0  0  0  0  0  0  0  0  0  0  0  0
    4.1141    2.1286    2.5220 Cl  0  0  0  0  0  0  0  0  0  0  0  0
  1  2  2  0
  2  3  1  0
  3  4  1  0
  4  5  2  0
  5  6  1  0
  6  7  1  0
  6  8  2  0
  8  9  1  0
  9 10  1  0
  9 11  2  0
  2 12  1  0
 12 13  1  0
 13 14  1  0
 14 15  1  0
 15 16  1  0
 16 17  1  0
 17 18  2  0
 18 19  1  0
 19 20  1  0
 20 21  1  0
 21 22  1  0
 22 23  1  0
 23 24  2  3
 24 25  1  0
 25 26  1  0
 26 27  1  0
 11  4  1  0
 21 14  1  0
 15 19  2  0
M  END
$$$$
