
     RDKit          3D

 24 26  0  0  0  0  0  0  0  0999 V2000
   -0.9742   -0.5000    1.5752 O   0  0  0  0  0  0  0  0  0  0  0  0
   -0.8278   -0.4394    0.3276 C   0  0  0  0  0  0  0  0  0  0  0  0
    0.2818   -0.2145   -0.5255 N   0  0  0  0  0  0  0  0  0  0  0  0
    1.6475   -0.5567   -0.4331 C   0  0  0  0  0  0  0  0  0  0  0  0
    2.5005   -0.5554   -1.5181 C   0  0  0  0  0  0  0  0  0  0  0  0
    3.8373   -0.8866   -1.4435 C   0  0  0  0  0  0  0  0  0  0  0  0
    4.3383   -1.2412   -0.1909 C   0  0  0  0  0  0  0  0  0  0  0  0
    5.6394   -1.5676   -0.0929 F   0  0  0  0  0  0  0  0  0  0  0  0
    3.5280   -1.2580    0.9199 C   0  0  0  0  0  0  0  0  0  0  0  0
    4.2099   -1.7082    2.4575 Cl  0  0  0  0  0  0  0  0  0  0  0  0
    2.2126   -0.9189    0.7802 C   0  0  0  0  0  0  0  0  0  0  0  0
   -0.6230    0.4628   -1.4192 C   0  0  0  0  0  0  0  0  0  0  0  0
   -0.8604    1.8467   -0.9030 C   0  0  0  0  0  0  0  0  0  0  0  0
   -1.0762    2.0792    0.4491 C   0  0  0  0  0  0  0  0  0  0  0  0
   -1.3017    3.3013    0.9960 C   0  0  0  0  0  0  0  0  0  0  0  0
   -1.3194    4.4028    0.1496 C   0  0  0  0  0  0  0  0  0  0  0  0
   -1.1053    4.1656   -1.1869 C   0  0  0  0  0  0  0  0  0  0  0  0
   -0.8837    2.9378   -1.7012 N   0  0  0  0  0  0  0  0  0  0  0  0
   -1.6521   -0.5559   -0.9094 C   0  0  0  0  0  0  0  0  0  0  0  0
   -3.0376   -0.0254   -0.7446 C   0  0  0  0  0  0  0  0  0  0  0  0
   -3.7030   -0.8259    0.3601 C   0  0  0  0  0  0  0  0  0  0  0  0
   -3.7724   -2.2400    0.0568 N   0  0  0  0  0  0  0  0  0  0  0  0
   -4.5667   -2.9737    1.4461 Cl  0  0  0  0  0  0  0  0  0  0  0  0
   -2.4918   -2.7289    0.0863 F   0  0  0  0  0  0  0  0  0  0  0  0
  1  2  2  0
  2  3  1  0
  3  4  1  0
  4  5  2  0
  5  6  1  0
  6  7  2  0
  7  8  1  0
  7  9  1  0
  9 10  1  0
  9 11  2  0
  3 12  1  0
 12 13  1  0
 13 14  2  0
 14 15  1  0
 15 16  2  0
 16 17  1  0
 17 18  2  0
 12 19  1  0
 19 20  1  0
 20 21  1  0
 21 22  1  0
 22 23  1  0
 22 24  1  0
 19  2  1  0
 11  4  1  0
 18 13  1  0
M  END
$$$$
