
     RDKit          3D

 11 11  0  0  0  0  0  0  0  0999 V2000
   -3.7086    0.4617   -0.5983 O   0  0  0  0  0  0  0  0  0  0  0  0
   -2.6344    1.0726   -0.6862 C   0  0  0  0  0  0  0  0  0  0  0  0
   -1.3949    0.5494   -0.2263 N   0  0  0  0  0  0  0  0  0  0  0  0
   -0.2682    1.3937   -0.4115 C   0  0  0  0  0  0  0  0  0  0  0  0
    1.0200    1.0123   -0.4717 C   0  0  0  0  0  0  0  0  0  0  0  0
    1.5418   -0.3503   -0.3600 C   0  0  0  0  0  0  0  0  0  0  0  0
    2.8255   -0.5502   -0.2033 C   0  0  0  0  0  0  0  0  0  0  0  0
    3.7566    0.4163   -0.1312 F   0  0  0  0  0  0  0  0  0  0  0  0
   -1.4491   -0.7551    0.3617 C   0  0  0  0  0  0  0  0  0  0  0  0
   -0.4550   -1.7133   -0.1151 C   0  0  0  0  0  0  0  0  0  0  0  0
    0.7665   -1.5370   -0.4074 N   0  0  0  0  0  0  0  0  0  0  0  0
  1  2  2  0
  2  3  1  0
  3  4  1  0
  4  5  2  0
  5  6  1  0
  6  7  2  3
  7  8  1  0
  3  9  1  0
  9 10  1  0
 10 11  2  0
 11  6  1  0
M  END
$$$$
