
     RDKit          3D

 11 11  0  0  0  0  0  0  0  0999 V2000
   -3.0291   -1.6476    0.6380 O   0  0  0  0  0  0  0  0  0  0  0  0
   -2.7850   -0.4177    0.7420 C   0  0  0  0  0  0  0  0  0  0  0  0
   -1.5578    0.0373    0.1795 N   0  0  0  0  0  0  0  0  0  0  0  0
   -0.7022   -0.9052   -0.4512 C   0  0  0  0  0  0  0  0  0  0  0  0
    0.6145   -0.8983   -0.6590 C   0  0  0  0  0  0  0  0  0  0  0  0
    1.5037    0.1838   -0.2355 C   0  0  0  0  0  0  0  0  0  0  0  0
    2.8043    0.0279   -0.4643 C   0  0  0  0  0  0  0  0  0  0  0  0
    3.2594   -1.1046   -1.0702 F   0  0  0  0  0  0  0  0  0  0  0  0
   -1.3294    1.4385    0.3241 C   0  0  0  0  0  0  0  0  0  0  0  0
    0.0120    1.8656    0.5943 C   0  0  0  0  0  0  0  0  0  0  0  0
    1.2096    1.4203    0.4023 N   0  0  0  0  0  0  0  0  0  0  0  0
  1  2  2  0
  2  3  1  0
  3  4  1  0
  4  5  2  0
  5  6  1  0
  6  7  2  3
  7  8  1  0
  3  9  1  0
  9 10  1  0
 10 11  2  0
 11  6  1  0
M  END
$$$$
