
     RDKit          3D

 29 33  0  0  0  0  0  0  0  0999 V2000
   -1.8975   -0.2347   -0.5246 O   0  0  0  0  0  0  0  0  0  0  0  0
   -1.9328    0.9820   -0.2055 C   0  0  0  0  0  0  0  0  0  0  0  0
   -3.2335    1.5352   -0.0457 N   0  0  0  0  0  0  0  0  0  0  0  0
   -4.4313    0.7008   -0.2488 C   0  0  0  0  0  0  0  0  0  0  0  0
   -4.2656   -0.5905    0.6192 C   0  0  0  0  0  0  0  0  0  0  0  0
   -5.3660    0.4529    0.8563 C   0  0  0  0  0  0  0  0  0  0  0  0
   -6.7222   -0.0442    0.4418 C   0  0  0  0  0  0  0  0  0  0  0  0
   -7.8549    0.6659    0.7847 C   0  0  0  0  0  0  0  0  0  0  0  0
   -9.0758    0.1867    0.3893 C   0  0  0  0  0  0  0  0  0  0  0  0
   -9.2113   -0.9752   -0.3366 C   0  0  0  0  0  0  0  0  0  0  0  0
   -8.0716   -1.6743   -0.6723 C   0  0  0  0  0  0  0  0  0  0  0  0
   -6.8586   -1.2073   -0.2846 C   0  0  0  0  0  0  0  0  0  0  0  0
   -0.7218    1.6597   -0.0408 N   0  0  0  0  0  0  0  0  0  0  0  0
    0.5869    1.0777   -0.2088 C   0  0  0  0  0  0  0  0  0  0  0  0
    1.0519    0.5837    1.1449 C   0  0  0  0  0  0  0  0  0  0  0  0
    1.4432   -0.8633    0.9457 C   0  0  0  0  0  0  0  0  0  0  0  0
    2.8817   -0.9148    0.5993 C   0  0  0  0  0  0  0  0  0  0  0  0
    3.8446   -0.0872    0.9739 N   0  0  0  0  0  0  0  0  0  0  0  0
    5.0143   -0.4843    0.4432 C   0  0  0  0  0  0  0  0  0  0  0  0
    6.3246    0.1305    0.5960 C   0  0  0  0  0  0  0  0  0  0  0  0
    6.5417    1.2599    1.3469 C   0  0  0  0  0  0  0  0  0  0  0  0
    7.7998    1.8317    1.4797 C   0  0  0  0  0  0  0  0  0  0  0  0
    8.8347    1.2056    0.8146 C   0  0  0  0  0  0  0  0  0  0  0  0
    8.6145    0.0862    0.0718 C   0  0  0  0  0  0  0  0  0  0  0  0
    7.3826   -0.4239   -0.0233 N   0  0  0  0  0  0  0  0  0  0  0  0
    4.7089   -1.5876   -0.2666 N   0  0  0  0  0  0  0  0  0  0  0  0
    3.4444   -1.8318   -0.1668 O   0  0  0  0  0  0  0  0  0  0  0  0
    0.5959   -1.3201   -0.2067 C   0  0  0  0  0  0  0  0  0  0  0  0
    0.5731   -0.1192   -1.1197 C   0  0  0  0  0  0  0  0  0  0  0  0
  1  2  2  0
  2  3  1  0
  3  4  1  0
  4  5  1  0
  5  6  1  0
  6  7  1  0
  7  8  2  0
  8  9  1  0
  9 10  2  0
 10 11  1  0
 11 12  2  0
  2 13  1  0
 13 14  1  0
 14 15  1  0
 15 16  1  0
 16 17  1  0
 17 18  2  0
 18 19  1  0
 19 20  1  0
 20 21  2  0
 21 22  1  0
 22 23  2  0
 23 24  1  0
 24 25  2  0
 19 26  2  0
 26 27  1  0
 16 28  1  0
 28 29  1  0
  6  4  1  0
 12  7  1  0
 29 14  1  0
 27 17  1  0
 25 20  1  0
M  END
$$$$
