
     RDKit          3D

 25 27  0  0  0  0  0  0  0  0999 V2000
   -1.2084    0.0854    0.9427 O   0  0  0  0  0  0  0  0  0  0  0  0
   -1.0340   -0.6805   -0.0711 C   0  0  0  0  0  0  0  0  0  0  0  0
   -2.1648   -0.9204   -0.8918 N   0  0  0  0  0  0  0  0  0  0  0  0
   -3.4531   -0.4042   -0.6799 C   0  0  0  0  0  0  0  0  0  0  0  0
   -4.3519   -0.1777   -1.7169 C   0  0  0  0  0  0  0  0  0  0  0  0
   -5.6235    0.3039   -1.5122 C   0  0  0  0  0  0  0  0  0  0  0  0
   -6.7591    0.6138   -2.7923 Cl  0  0  0  0  0  0  0  0  0  0  0  0
   -5.9989    0.5667   -0.2210 C   0  0  0  0  0  0  0  0  0  0  0  0
   -5.1510    0.3598    0.8445 C   0  0  0  0  0  0  0  0  0  0  0  0
   -5.5727    0.6176    2.1144 F   0  0  0  0  0  0  0  0  0  0  0  0
   -3.8843   -0.1248    0.5924 C   0  0  0  0  0  0  0  0  0  0  0  0
    0.2323   -1.2182   -0.2970 N   0  0  0  0  0  0  0  0  0  0  0  0
    1.4311   -0.9797    0.4936 C   0  0  0  0  0  0  0  0  0  0  0  0
    1.9080   -2.1231    1.2974 C   0  0  0  0  0  0  0  0  0  0  0  0
    2.8198   -2.8895    0.3842 C   0  0  0  0  0  0  0  0  0  0  0  0
    3.4981   -1.8212   -0.4855 C   0  0  0  0  0  0  0  0  0  0  0  0
    2.5175   -0.7200   -0.5217 C   0  0  0  0  0  0  0  0  0  0  0  0
    2.9740    0.6477   -0.6927 C   0  0  0  0  0  0  0  0  0  0  0  0
    3.5966    1.3359    0.4883 C   0  0  0  0  0  0  0  0  0  0  0  0
    4.8490    0.6596    1.0000 C   0  0  0  0  0  0  0  0  0  0  0  0
    5.9774    1.4130    0.4329 C   0  0  0  0  0  0  0  0  0  0  0  0
    5.5584    2.5410   -0.0848 C   0  0  0  0  0  0  0  0  0  0  0  0
    4.1058    2.6744    0.0714 C   0  0  0  0  0  0  0  0  0  0  0  0
    3.6846    3.9474    1.2384 Cl  0  0  0  0  0  0  0  0  0  0  0  0
    2.0492   -3.7068   -0.4105 F   0  0  0  0  0  0  0  0  0  0  0  0
  1  2  2  0
  2  3  1  0
  3  4  1  0
  4  5  2  0
  5  6  1  0
  6  7  1  0
  6  8  2  0
  8  9  1  0
  9 10  1  0
  9 11  2  0
  2 12  1  0
 12 13  1  0
 13 14  1  0
 14 15  1  0
 15 16  1  0
 16 17  1  0
 17 18  1  0
 18 19  1  0
 19 20  1  0
 20 21  1  0
 21 22  2  0
 22 23  1  0
 23 24  1  0
 15 25  1  0
 11  4  1  0
 17 13  1  0
 23 19  1  0
M  END
$$$$
