
     RDKit          3D

 28 31  0  0  0  0  0  0  0  0999 V2000
    0.9640   -0.2315   -2.5047 O   0  0  0  0  0  0  0  0  0  0  0  0
    0.5878   -0.6598   -1.3509 C   0  0  0  0  0  0  0  0  0  0  0  0
   -0.6945   -0.7489   -0.8001 N   0  0  0  0  0  0  0  0  0  0  0  0
   -1.9686   -0.2236   -1.1056 C   0  0  0  0  0  0  0  0  0  0  0  0
   -2.9717   -0.1770   -0.1486 C   0  0  0  0  0  0  0  0  0  0  0  0
   -4.2244    0.3262   -0.4338 C   0  0  0  0  0  0  0  0  0  0  0  0
   -4.4904    0.7966   -1.7039 C   0  0  0  0  0  0  0  0  0  0  0  0
   -5.7177    1.2981   -2.0179 F   0  0  0  0  0  0  0  0  0  0  0  0
   -3.5275    0.7666   -2.6697 C   0  0  0  0  0  0  0  0  0  0  0  0
   -3.8923    1.3715   -4.2686 Cl  0  0  0  0  0  0  0  0  0  0  0  0
   -2.2714    0.2526   -2.3529 C   0  0  0  0  0  0  0  0  0  0  0  0
   -0.1960   -1.6134    0.2225 C   0  0  0  0  0  0  0  0  0  0  0  0
   -0.7126   -1.3997    1.5772 C   0  0  0  0  0  0  0  0  0  0  0  0
   -1.0919   -2.4971    2.3187 C   0  0  0  0  0  0  0  0  0  0  0  0
   -1.5928   -2.3663    3.5986 C   0  0  0  0  0  0  0  0  0  0  0  0
   -1.6968   -1.0675    4.1067 C   0  0  0  0  0  0  0  0  0  0  0  0
   -1.3174    0.0187    3.3642 C   0  0  0  0  0  0  0  0  0  0  0  0
   -0.8394   -0.1805    2.1283 N   0  0  0  0  0  0  0  0  0  0  0  0
    1.1453   -1.2069   -0.1471 C   0  0  0  0  0  0  0  0  0  0  0  0
    2.1089   -0.5670    0.7060 C   0  0  0  0  0  0  0  0  0  0  0  0
    3.4194   -0.1857    0.1782 C   0  0  0  0  0  0  0  0  0  0  0  0
    3.5529    0.7315   -0.8969 N   0  0  0  0  0  0  0  0  0  0  0  0
    3.7471    1.8138    0.0516 C   0  0  0  0  0  0  0  0  0  0  0  0
    4.1563    0.7729    1.0727 C   0  0  0  0  0  0  0  0  0  0  0  0
    3.5570    1.0745    2.4049 C   0  0  0  0  0  0  0  0  0  0  0  0
    4.4242    1.9787    3.0346 F   0  0  0  0  0  0  0  0  0  0  0  0
    4.7531    0.4951   -1.6759 C   0  0  0  0  0  0  0  0  0  0  0  0
    4.7896    1.4284   -2.6873 F   0  0  0  0  0  0  0  0  0  0  0  0
  1  2  2  0
  2  3  1  0
  3  4  1  0
  4  5  2  0
  5  6  1  0
  6  7  2  0
  7  8  1  0
  7  9  1  0
  9 10  1  0
  9 11  2  0
  3 12  1  0
 12 13  1  0
 13 14  2  0
 14 15  1  0
 15 16  2  0
 16 17  1  0
 17 18  2  0
 12 19  1  0
 19 20  1  0
 20 21  1  0
 21 22  1  0
 22 23  1  0
 23 24  1  0
 24 25  1  0
 25 26  1  0
 22 27  1  0
 27 28  1  0
 19  2  1  0
 11  4  1  0
 18 13  1  0
 24 21  1  0
M  END
$$$$
