
     RDKit          3D

 29 33  0  0  0  0  0  0  0  0999 V2000
   -2.4552    0.7861   -1.7488 O   0  0  0  0  0  0  0  0  0  0  0  0
   -1.8310   -0.2352   -1.3060 C   0  0  0  0  0  0  0  0  0  0  0  0
   -2.3895   -1.4916   -1.6170 N   0  0  0  0  0  0  0  0  0  0  0  0
   -3.5655   -1.6135   -2.3845 C   0  0  0  0  0  0  0  0  0  0  0  0
   -4.0653   -0.2746   -2.9873 C   0  0  0  0  0  0  0  0  0  0  0  0
   -4.8920   -1.1096   -2.1173 C   0  0  0  0  0  0  0  0  0  0  0  0
   -5.4530   -0.6732   -0.8502 C   0  0  0  0  0  0  0  0  0  0  0  0
   -4.9479   -0.8939    0.4053 C   0  0  0  0  0  0  0  0  0  0  0  0
   -5.5960   -0.4098    1.5423 C   0  0  0  0  0  0  0  0  0  0  0  0
   -6.7800    0.3135    1.4549 C   0  0  0  0  0  0  0  0  0  0  0  0
   -7.2843    0.5338    0.2095 C   0  0  0  0  0  0  0  0  0  0  0  0
   -6.6497    0.0597   -0.9222 C   0  0  0  0  0  0  0  0  0  0  0  0
   -0.6509   -0.0473   -0.5512 N   0  0  0  0  0  0  0  0  0  0  0  0
    0.0943   -1.1694   -0.0306 C   0  0  0  0  0  0  0  0  0  0  0  0
    0.1998   -1.0352    1.4589 C   0  0  0  0  0  0  0  0  0  0  0  0
    0.6548    0.3271    1.8577 C   0  0  0  0  0  0  0  0  0  0  0  0
    2.1015    0.5654    1.7266 C   0  0  0  0  0  0  0  0  0  0  0  0
    2.9725    0.0473    0.8438 N   0  0  0  0  0  0  0  0  0  0  0  0
    4.2040    0.5453    1.0887 C   0  0  0  0  0  0  0  0  0  0  0  0
    5.4419    0.2645    0.3784 C   0  0  0  0  0  0  0  0  0  0  0  0
    6.6141    0.8742    0.7715 C   0  0  0  0  0  0  0  0  0  0  0  0
    7.8292    0.6432    0.1243 C   0  0  0  0  0  0  0  0  0  0  0  0
    7.8049   -0.2360   -0.9447 C   0  0  0  0  0  0  0  0  0  0  0  0
    6.6477   -0.8426   -1.3401 C   0  0  0  0  0  0  0  0  0  0  0  0
    5.4918   -0.5764   -0.6659 N   0  0  0  0  0  0  0  0  0  0  0  0
    4.0419    1.3760    2.1448 N   0  0  0  0  0  0  0  0  0  0  0  0
    2.7940    1.3736    2.5060 O   0  0  0  0  0  0  0  0  0  0  0  0
   -0.1619    1.4305    1.2425 C   0  0  0  0  0  0  0  0  0  0  0  0
   -0.1700    1.2890   -0.2892 C   0  0  0  0  0  0  0  0  0  0  0  0
  1  2  2  0
  2  3  1  0
  3  4  1  0
  4  5  1  0
  5  6  1  0
  6  7  1  0
  7  8  2  0
  8  9  1  0
  9 10  2  0
 10 11  1  0
 11 12  2  0
  2 13  1  0
 13 14  1  0
 14 15  1  0
 15 16  1  0
 16 17  1  0
 17 18  2  0
 18 19  1  0
 19 20  1  0
 20 21  2  0
 21 22  1  0
 22 23  2  0
 23 24  1  0
 24 25  2  0
 19 26  2  0
 26 27  1  0
 16 28  1  0
 28 29  1  0
  6  4  1  0
 12  7  1  0
 29 13  1  0
 27 17  1  0
 25 20  1  0
M  END
$$$$
