
     RDKit          3D

 27 29  0  0  0  0  0  0  0  0999 V2000
   -0.6319    1.2863   -2.6505 O   0  0  0  0  0  0  0  0  0  0  0  0
   -0.1060    0.8265   -1.6086 C   0  0  0  0  0  0  0  0  0  0  0  0
   -0.7582    0.0753   -0.5536 N   0  0  0  0  0  0  0  0  0  0  0  0
   -1.8094   -0.8171   -0.5421 C   0  0  0  0  0  0  0  0  0  0  0  0
   -2.7081   -0.9701   -1.5872 C   0  0  0  0  0  0  0  0  0  0  0  0
   -3.7272   -1.8971   -1.5181 C   0  0  0  0  0  0  0  0  0  0  0  0
   -3.9145   -2.7145   -0.4340 C   0  0  0  0  0  0  0  0  0  0  0  0
   -4.9175   -3.6399   -0.3771 F   0  0  0  0  0  0  0  0  0  0  0  0
   -3.0273   -2.5694    0.6092 C   0  0  0  0  0  0  0  0  0  0  0  0
   -3.2474   -3.6017    1.9959 Cl  0  0  0  0  0  0  0  0  0  0  0  0
   -2.0225   -1.6604    0.5503 C   0  0  0  0  0  0  0  0  0  0  0  0
    0.2002    0.6858    0.3285 C   0  0  0  0  0  0  0  0  0  0  0  0
   -0.2968    1.9326    0.8820 C   0  0  0  0  0  0  0  0  0  0  0  0
    0.3213    3.1599    0.6922 C   0  0  0  0  0  0  0  0  0  0  0  0
   -0.1931    4.2951    1.2775 C   0  0  0  0  0  0  0  0  0  0  0  0
   -1.3398    4.1891    2.0551 C   0  0  0  0  0  0  0  0  0  0  0  0
   -1.9561    2.9761    2.2478 C   0  0  0  0  0  0  0  0  0  0  0  0
   -1.4085    1.9110    1.6572 N   0  0  0  0  0  0  0  0  0  0  0  0
    1.1126    0.6801   -0.8354 C   0  0  0  0  0  0  0  0  0  0  0  0
    2.2338    1.5997   -0.8933 C   0  0  0  0  0  0  0  0  0  0  0  0
    3.2911    1.0593    0.1007 C   0  0  0  0  0  0  0  0  0  0  0  0
    3.7013   -0.2590   -0.2013 N   0  0  0  0  0  0  0  0  0  0  0  0
    4.2732   -0.4268   -1.3455 O   0  0  0  0  0  0  0  0  0  0  0  0
    3.6988    0.3275   -2.3013 N   0  0  0  0  0  0  0  0  0  0  0  0
    3.8866   -1.1311    0.7500 O   0  0  0  0  0  0  0  0  0  0  0  0
    4.6061   -2.2247    0.3083 C   0  0  0  0  0  0  0  0  0  0  0  0
    4.7393   -3.0927    1.3932 F   0  0  0  0  0  0  0  0  0  0  0  0
  1  2  2  0
  2  3  1  0
  3  4  1  0
  4  5  2  0
  5  6  1  0
  6  7  2  0
  7  8  1  0
  7  9  1  0
  9 10  1  0
  9 11  2  0
  3 12  1  0
 12 13  1  0
 13 14  2  0
 14 15  1  0
 15 16  2  0
 16 17  1  0
 17 18  2  0
 12 19  1  0
 19 20  1  0
 20 21  1  0
 21 22  1  0
 22 23  1  0
 23 24  1  0
 22 25  1  0
 25 26  1  0
 26 27  1  0
 19  2  1  0
 11  4  1  0
 18 13  1  0
M  END
$$$$
