
     RDKit          3D

 11 11  0  0  0  0  0  0  0  0999 V2000
   -3.6181    0.4467    0.6011 O   0  0  0  0  0  0  0  0  0  0  0  0
   -2.8980    0.1727   -0.3837 C   0  0  0  0  0  0  0  0  0  0  0  0
   -1.5295   -0.1294   -0.1813 N   0  0  0  0  0  0  0  0  0  0  0  0
   -0.7868   -0.4320   -1.3868 C   0  0  0  0  0  0  0  0  0  0  0  0
    0.5518   -0.4101   -1.4712 C   0  0  0  0  0  0  0  0  0  0  0  0
    1.5109   -0.0878   -0.4031 C   0  0  0  0  0  0  0  0  0  0  0  0
    2.7790   -0.3813   -0.6193 C   0  0  0  0  0  0  0  0  0  0  0  0
    3.7086   -0.1108    0.3209 F   0  0  0  0  0  0  0  0  0  0  0  0
   -1.1188   -0.0848    1.1768 C   0  0  0  0  0  0  0  0  0  0  0  0
    0.1524    0.5079    1.5005 C   0  0  0  0  0  0  0  0  0  0  0  0
    1.2485    0.5088    0.8462 N   0  0  0  0  0  0  0  0  0  0  0  0
  1  2  2  0
  2  3  1  0
  3  4  1  0
  4  5  2  0
  5  6  1  0
  6  7  2  3
  7  8  1  0
  3  9  1  0
  9 10  1  0
 10 11  2  0
 11  6  1  0
M  END
$$$$
