
     RDKit          3D

 20 22  0  0  0  0  0  0  0  0999 V2000
   -0.0287    3.9947    0.1921 O   0  0  0  0  0  0  0  0  0  0  0  0
   -0.1092    2.7676    0.0808 C   0  0  0  0  0  0  0  0  0  0  0  0
    1.1273    2.0525    0.1078 N   0  0  0  0  0  0  0  0  0  0  0  0
    1.5374    0.6972    0.0040 C   0  0  0  0  0  0  0  0  0  0  0  0
    2.8898    0.6430    0.3015 C   0  0  0  0  0  0  0  0  0  0  0  0
    3.5826   -0.5552    0.2848 C   0  0  0  0  0  0  0  0  0  0  0  0
    5.2827   -0.6104    0.6606 Cl  0  0  0  0  0  0  0  0  0  0  0  0
    2.8934   -1.7008   -0.0363 C   0  0  0  0  0  0  0  0  0  0  0  0
    1.5419   -1.6648   -0.3362 C   0  0  0  0  0  0  0  0  0  0  0  0
    0.6367   -3.1039   -0.7484 Cl  0  0  0  0  0  0  0  0  0  0  0  0
    0.8425   -0.4525   -0.3189 C   0  0  0  0  0  0  0  0  0  0  0  0
   -1.4399    2.2292   -0.0606 N   0  0  0  0  0  0  0  0  0  0  0  0
   -2.1584    1.0482   -0.0882 C   0  0  0  0  0  0  0  0  0  0  0  0
   -2.9430    0.6279    1.0857 C   0  0  0  0  0  0  0  0  0  0  0  0
   -3.4787   -0.6922    0.6495 C   0  0  0  0  0  0  0  0  0  0  0  0
   -2.9447   -1.0578   -0.6892 C   0  0  0  0  0  0  0  0  0  0  0  0
   -1.7876   -0.0742   -0.9357 C   0  0  0  0  0  0  0  0  0  0  0  0
   -0.5349   -0.7711   -0.6763 C   0  0  0  0  0  0  0  0  0  0  0  0
   -0.6630   -2.0159   -0.7903 O   0  0  0  0  0  0  0  0  0  0  0  0
   -4.2462   -1.3615    1.3134 O   0  0  0  0  0  0  0  0  0  0  0  0
  1  2  2  0
  2  3  1  0
  3  4  1  0
  4  5  2  0
  5  6  1  0
  6  7  1  0
  6  8  2  0
  8  9  1  0
  9 10  1  0
  9 11  2  0
  2 12  1  0
 12 13  1  0
 13 14  1  0
 14 15  1  0
 15 16  1  0
 16 17  1  0
 17 18  1  0
 18 19  2  0
 15 20  2  0
 11  4  1  0
 18 11  1  0
 17 13  1  0
M  END
$$$$
