
     RDKit          3D

 25 27  0  0  0  0  0  0  0  0999 V2000
    5.8153    1.8055    1.0493 C   0  0  0  0  0  0  0  0  0  0  0  0
    5.1973    0.5265    1.5869 C   0  0  0  0  0  0  0  0  0  0  0  0
    5.6599   -0.6945    0.7851 C   0  0  2  0  0  0  0  0  0  0  0  0
    7.1730   -0.7955    0.8875 C   0  0  0  0  0  0  0  0  0  0  0  0
    5.3147   -0.5487   -0.6846 C   0  0  0  0  0  3  0  0  0  0  0  0
    3.8884   -0.3430   -0.7864 N   0  0  0  0  0  0  0  0  0  0  0  0
    2.9283   -1.2373   -0.2636 C   0  0  0  0  0  0  0  0  0  0  0  0
    3.2808   -2.2765    0.3272 O   0  0  0  0  0  0  0  0  0  0  0  0
    1.5484   -0.9314   -0.4215 N   0  0  0  0  0  0  0  0  0  0  0  0
    1.1436    0.2894   -1.1150 C   0  0  0  0  0  0  0  0  0  0  0  0
    0.3413    1.0869   -0.1058 C   0  0  0  0  0  0  0  0  0  0  0  0
   -0.9180    0.2779    0.2103 C   0  0  0  0  0  0  0  0  0  0  0  0
   -0.5877   -1.0502    0.7734 C   0  0  0  0  0  0  0  0  0  0  0  0
    0.5076   -1.7846    0.0768 C   0  0  0  0  0  0  0  0  0  0  0  0
   -1.9636    0.4281   -0.7771 C   0  0  0  0  0  0  0  0  0  0  0  0
   -3.1553   -0.1907   -0.6730 N   0  0  0  0  0  0  0  0  0  0  0  0
   -3.4566   -1.5286   -0.7937 C   0  0  0  0  0  0  0  0  0  0  0  0
   -2.8724   -2.4137    0.2439 C   0  0  0  0  0  0  0  0  0  0  0  0
   -4.9079   -1.8727   -0.9873 C   0  0  0  0  0  0  0  0  0  0  0  0
   -4.2071    0.4963    0.0611 C   0  0  0  0  0  0  0  0  0  0  0  0
   -3.7531    0.6469    1.4662 C   0  0  0  0  0  0  0  0  0  0  0  0
   -3.8882    1.9607    1.3322 C   0  0  0  0  0  0  0  0  0  0  0  0
   -4.0902    3.3807    1.0203 C   0  0  0  0  0  0  0  0  0  0  0  0
   -4.5749    3.0052   -0.1600 C   0  0  0  0  0  0  0  0  0  0  0  0
   -4.4238    1.7633    0.0544 N   0  0  0  0  0  3  0  0  0  0  0  0
  1  2  1  0
  2  3  1  0
  3  4  1  6
  3  5  1  0
  5  6  1  0
  6  7  1  0
  7  8  2  0
  7  9  1  0
  9 10  1  0
 10 11  1  0
 11 12  1  0
 12 13  1  0
 13 14  1  0
 12 15  1  0
 15 16  1  0
 16 17  1  0
 17 18  1  0
 17 19  1  0
 16 20  1  0
 20 21  1  0
 21 22  2  0
 22 23  1  0
 23 24  2  0
 24 25  1  0
 14  9  1  0
 25 20  1  0
 25 22  1  0
M  CHG  1  25   1
M  RAD  2   5   2  25   2
M  END
$$$$
