
     RDKit          3D

 11 11  0  0  0  0  0  0  0  0999 V2000
   -3.0865    1.6767    0.5819 O   0  0  0  0  0  0  0  0  0  0  0  0
   -2.8042    0.5481    0.1125 C   0  0  0  0  0  0  0  0  0  0  0  0
   -1.5132   -0.0382    0.2585 N   0  0  0  0  0  0  0  0  0  0  0  0
   -0.5053    0.7053    0.9742 C   0  0  0  0  0  0  0  0  0  0  0  0
    0.8276    0.6419    0.7378 C   0  0  0  0  0  0  0  0  0  0  0  0
    1.5193   -0.1632   -0.2578 C   0  0  0  0  0  0  0  0  0  0  0  0
    2.8210   -0.2005   -0.1905 C   0  0  0  0  0  0  0  0  0  0  0  0
    3.4884    0.4849    0.7695 F   0  0  0  0  0  0  0  0  0  0  0  0
   -1.3415   -1.3353   -0.3280 C   0  0  0  0  0  0  0  0  0  0  0  0
   -0.2975   -1.4161   -1.3702 C   0  0  0  0  0  0  0  0  0  0  0  0
    0.8919   -0.9037   -1.2879 N   0  0  0  0  0  0  0  0  0  0  0  0
  1  2  2  0
  2  3  1  0
  3  4  1  0
  4  5  2  0
  5  6  1  0
  6  7  2  3
  7  8  1  0
  3  9  1  0
  9 10  1  0
 10 11  2  0
 11  6  1  0
M  END
$$$$
