
     RDKit          3D

 20 22  0  0  0  0  0  0  0  0999 V2000
   -0.2932   -3.8946   -0.6488 O   0  0  0  0  0  0  0  0  0  0  0  0
   -0.3447   -2.6319   -0.4999 C   0  0  0  0  0  0  0  0  0  0  0  0
    0.9458   -2.0380   -0.6049 N   0  0  0  0  0  0  0  0  0  0  0  0
    1.4676   -0.7554   -0.1987 C   0  0  0  0  0  0  0  0  0  0  0  0
    2.8409   -0.8298   -0.4185 C   0  0  0  0  0  0  0  0  0  0  0  0
    3.6286    0.2599   -0.1216 C   0  0  0  0  0  0  0  0  0  0  0  0
    5.3761    0.2383   -0.3740 Cl  0  0  0  0  0  0  0  0  0  0  0  0
    3.0191    1.3897    0.3856 C   0  0  0  0  0  0  0  0  0  0  0  0
    1.6651    1.4575    0.6003 C   0  0  0  0  0  0  0  0  0  0  0  0
    1.0581    2.5606    1.0972 F   0  0  0  0  0  0  0  0  0  0  0  0
    0.8679    0.3788    0.3088 C   0  0  0  0  0  0  0  0  0  0  0  0
   -1.6536   -2.1194   -0.2679 N   0  0  0  0  0  0  0  0  0  0  0  0
   -2.2042   -0.8100   -0.3209 C   0  0  0  0  0  0  0  0  0  0  0  0
   -3.5406   -0.6533   -0.8368 C   0  0  0  0  0  0  0  0  0  0  0  0
   -4.4158    0.1733    0.0104 C   0  0  0  0  0  0  0  0  0  0  0  0
   -2.5277    1.6590   -0.7626 S   0  0  0  0  0  0  0  0  0  0  0  0
   -1.8417    0.1051    0.7532 C   0  0  0  0  0  0  0  0  0  0  0  0
   -0.5070    0.7469    0.6387 C   0  0  0  0  0  0  0  0  0  0  0  0
   -0.5590    1.9779    0.9016 O   0  0  0  0  0  0  0  0  0  0  0  0
   -2.9818    2.7856    0.3586 O   0  0  0  0  0  1  0  0  0  0  0  0
  1  2  2  0
  2  3  1  0
  3  4  1  0
  4  5  2  0
  5  6  1  0
  6  7  1  0
  6  8  2  0
  8  9  1  0
  9 10  1  0
  9 11  2  0
  2 12  1  0
 12 13  1  0
 13 14  1  0
 14 15  1  0
 15 16  1  0
 16 17  1  0
 17 18  1  0
 18 19  2  0
 16 20  1  0
 11  4  1  0
 18 11  1  0
 17 13  1  0
M  CHG  1  20  -1
M  END
$$$$
