
     RDKit          3D

 29 33  0  0  0  0  0  0  0  0999 V2000
   -2.3346   -1.4254    0.0549 O   0  0  0  0  0  0  0  0  0  0  0  0
   -2.0787   -0.2571   -0.2783 C   0  0  0  0  0  0  0  0  0  0  0  0
   -2.4700    0.2038   -1.5468 N   0  0  0  0  0  0  0  0  0  0  0  0
   -3.1691   -0.5980   -2.5262 C   0  0  0  0  0  0  0  0  0  0  0  0
   -4.0557    0.2817   -3.4590 C   0  0  0  0  0  0  0  0  0  0  0  0
   -4.6278   -0.7133   -2.5387 C   0  0  0  0  0  0  0  0  0  0  0  0
   -5.4387   -0.3119   -1.3567 C   0  0  0  0  0  0  0  0  0  0  0  0
   -4.9590    0.4493   -0.3387 C   0  0  0  0  0  0  0  0  0  0  0  0
   -5.8004    0.7617    0.7087 C   0  0  0  0  0  0  0  0  0  0  0  0
   -7.1190    0.3315    0.7686 C   0  0  0  0  0  0  0  0  0  0  0  0
   -7.6043   -0.4500   -0.2809 C   0  0  0  0  0  0  0  0  0  0  0  0
   -6.7468   -0.7455   -1.3090 C   0  0  0  0  0  0  0  0  0  0  0  0
   -1.3843    0.5925    0.6528 N   0  0  0  0  0  0  0  0  0  0  0  0
   -1.0578    1.9646    0.3210 C   0  0  0  0  0  0  0  0  0  0  0  0
    0.4339    2.1941    0.3620 C   0  0  0  0  0  0  0  0  0  0  0  0
    1.1166    1.3958    1.4261 C   0  0  0  0  0  0  0  0  0  0  0  0
    2.2334    0.5791    0.9792 C   0  0  0  0  0  0  0  0  0  0  0  0
    3.5569    0.8384    1.0792 N   0  0  0  0  0  0  0  0  0  0  0  0
    4.2545   -0.1785    0.5402 C   0  0  0  0  0  0  0  0  0  0  0  0
    5.7044   -0.3233    0.4302 C   0  0  0  0  0  0  0  0  0  0  0  0
    6.2358   -1.4486   -0.1597 C   0  0  0  0  0  0  0  0  0  0  0  0
    7.6170   -1.6278   -0.2853 C   0  0  0  0  0  0  0  0  0  0  0  0
    8.4500   -0.6633    0.1889 C   0  0  0  0  0  0  0  0  0  0  0  0
    7.9505    0.4625    0.7782 C   0  0  0  0  0  0  0  0  0  0  0  0
    6.5773    0.6326    0.8990 C   0  0  0  0  0  0  0  0  0  0  0  0
    3.3308   -1.0517    0.1153 N   0  0  0  0  0  0  0  0  0  0  0  0
    2.1512   -0.5789    0.3872 O   0  0  0  0  0  0  0  0  0  0  0  0
    0.2256    0.7965    2.4388 C   0  0  0  0  0  0  0  0  0  0  0  0
   -0.9916    0.1030    1.9491 C   0  0  0  0  0  0  0  0  0  0  0  0
  1  2  2  0
  2  3  1  0
  3  4  1  0
  4  5  1  0
  5  6  1  0
  6  7  1  0
  7  8  2  0
  8  9  1  0
  9 10  2  0
 10 11  1  0
 11 12  2  0
  2 13  1  0
 13 14  1  0
 14 15  1  0
 15 16  1  0
 16 17  1  0
 17 18  2  0
 18 19  1  0
 19 20  1  0
 20 21  2  0
 21 22  1  0
 22 23  2  0
 23 24  1  0
 24 25  2  0
 19 26  2  0
 26 27  1  0
 16 28  1  0
 28 29  1  0
  6  4  1  0
 12  7  1  0
 29 13  1  0
 27 17  1  0
 25 20  1  0
M  END
$$$$
