
     RDKit          3D

 25 28  0  0  0  0  0  0  0  0999 V2000
    0.7430   -1.8138    0.1324 O   0  0  0  0  0  0  0  0  0  0  0  0
    0.8441   -0.7150   -0.4611 C   0  0  0  0  0  0  0  0  0  0  0  0
    2.0216   -0.4793   -1.2086 N   0  0  0  0  0  0  0  0  0  0  0  0
    3.0683   -1.4762   -1.2826 C   0  0  0  0  0  0  0  0  0  0  0  0
    4.2550   -1.0720   -2.1566 C   0  0  0  0  0  0  0  0  0  0  0  0
    4.4137   -1.1051   -0.6393 C   0  0  0  0  0  0  0  0  0  0  0  0
    4.5110    0.1873    0.0730 C   0  0  0  0  0  0  0  0  0  0  0  0
    5.3423    1.1758   -0.3740 C   0  0  0  0  0  0  0  0  0  0  0  0
    5.4046    2.3667    0.3188 C   0  0  0  0  0  0  0  0  0  0  0  0
    4.6578    2.5986    1.4489 C   0  0  0  0  0  0  0  0  0  0  0  0
    3.8211    1.5708    1.8775 C   0  0  0  0  0  0  0  0  0  0  0  0
    3.7466    0.3750    1.1973 C   0  0  0  0  0  0  0  0  0  0  0  0
   -0.2217    0.2222   -0.3494 N   0  0  0  0  0  0  0  0  0  0  0  0
   -1.4214   -0.0720    0.4363 C   0  0  0  0  0  0  0  0  0  0  0  0
   -2.0623   -1.2935   -0.1492 C   0  0  0  0  0  0  0  0  0  0  0  0
   -2.4189   -1.0734   -1.5869 C   0  0  0  0  0  0  0  0  0  0  0  0
   -3.8919   -1.0092   -1.7507 C   0  0  0  0  0  0  0  0  0  0  0  0
   -4.4875    0.0948   -1.5503 N   0  0  0  0  0  0  0  0  0  0  0  0
   -3.7225    1.2429   -1.1728 C   0  0  0  0  0  0  0  0  0  0  0  0
   -4.2896    1.9525   -0.0309 C   0  0  0  0  0  0  0  0  0  0  0  0
   -4.5736    1.5089    1.1502 C   0  0  0  0  0  0  0  0  0  0  0  0
   -4.3936    0.1643    1.6389 C   0  0  0  0  0  0  0  0  0  0  0  0
   -4.7510   -0.9783    2.2564 C   0  0  0  0  0  0  0  0  0  0  0  0
   -3.3978   -0.7616    1.6301 C   0  0  0  0  0  0  0  0  0  0  0  0
   -3.1972   -1.6105    0.5525 O   0  0  0  0  0  0  0  0  0  0  0  0
  1  2  2  0
  2  3  1  0
  3  4  1  0
  4  5  1  0
  5  6  1  0
  6  7  1  0
  7  8  2  0
  8  9  1  0
  9 10  2  0
 10 11  1  0
 11 12  2  0
  2 13  1  0
 13 14  1  0
 14 15  1  0
 15 16  1  0
 16 17  1  0
 17 18  2  3
 18 19  1  0
 19 20  1  0
 20 21  2  3
 21 22  1  0
 22 23  2  0
 23 24  1  0
 24 25  1  0
  6  4  1  0
 12  7  1  0
 25 15  1  0
 24 22  1  0
M  END
$$$$
