
     RDKit          3D

 21 23  0  0  0  0  0  0  0  0999 V2000
   -0.6494    3.5352   -1.0776 O   0  0  0  0  0  0  0  0  0  0  0  0
   -0.4907    2.4012   -0.5580 C   0  0  0  0  0  0  0  0  0  0  0  0
    0.7240    1.7350   -0.8985 N   0  0  0  0  0  0  0  0  0  0  0  0
    1.3477    0.5014   -0.5001 C   0  0  0  0  0  0  0  0  0  0  0  0
    2.6569    0.5702   -0.9807 C   0  0  0  0  0  0  0  0  0  0  0  0
    3.5611   -0.4384   -0.7894 C   0  0  0  0  0  0  0  0  0  0  0  0
    5.2123   -0.3846   -1.3792 Cl  0  0  0  0  0  0  0  0  0  0  0  0
    3.1622   -1.5642   -0.0956 C   0  0  0  0  0  0  0  0  0  0  0  0
    1.8545   -1.6462    0.3910 C   0  0  0  0  0  0  0  0  0  0  0  0
    1.5294   -2.7820    1.0646 F   0  0  0  0  0  0  0  0  0  0  0  0
    0.9521   -0.6220    0.1914 C   0  0  0  0  0  0  0  0  0  0  0  0
   -1.5689    2.0355    0.2597 N   0  0  0  0  0  0  0  0  0  0  0  0
   -2.0237    1.0560    1.1839 C   0  0  0  0  0  0  0  0  0  0  0  0
   -3.4356    0.6236    1.0202 C   0  0  0  0  0  0  0  0  0  0  0  0
   -3.9162    0.6951   -0.4145 C   0  0  0  0  0  0  0  0  0  0  0  0
   -3.8608   -1.0231   -1.0550 S   0  0  0  0  0  0  0  0  0  0  0  0
   -1.7894   -1.4327   -1.4425 S   0  0  0  0  0  0  0  0  0  0  0  0
   -1.0588   -2.0860    0.0736 C   0  0  0  0  0  0  0  0  0  0  0  0
   -0.2652   -1.0809    0.8339 C   0  0  0  0  0  0  0  0  0  0  0  0
   -1.0719   -0.0243    1.4742 C   0  0  0  0  0  0  0  0  0  0  0  0
   -0.8696   -0.0687    2.6987 O   0  0  0  0  0  0  0  0  0  0  0  0
  1  2  2  0
  2  3  1  0
  3  4  1  0
  4  5  2  0
  5  6  1  0
  6  7  1  0
  6  8  2  0
  8  9  1  0
  9 10  1  0
  9 11  2  0
  2 12  1  0
 12 13  1  0
 13 14  1  0
 14 15  1  0
 15 16  1  0
 16 17  1  0
 17 18  1  0
 18 19  1  0
 19 20  1  0
 20 21  2  0
 11  4  1  0
 19 11  1  0
 20 13  1  0
M  END
$$$$
