
     RDKit          3D

 20 22  0  0  0  0  0  0  0  0999 V2000
   -1.1683    3.5047    0.4456 O   0  0  0  0  0  0  0  0  0  0  0  0
   -0.9145    2.2815    0.2552 C   0  0  0  0  0  0  0  0  0  0  0  0
    0.4284    1.8996    0.6127 N   0  0  0  0  0  0  0  0  0  0  0  0
    1.2882    0.8047    0.2429 C   0  0  0  0  0  0  0  0  0  0  0  0
    2.5662    1.2150    0.4994 C   0  0  0  0  0  0  0  0  0  0  0  0
    3.6007    0.3450    0.2315 C   0  0  0  0  0  0  0  0  0  0  0  0
    5.2829    0.8263    0.5459 Cl  0  0  0  0  0  0  0  0  0  0  0  0
    3.3146   -0.8960   -0.2807 C   0  0  0  0  0  0  0  0  0  0  0  0
    2.0153   -1.2791   -0.5281 C   0  0  0  0  0  0  0  0  0  0  0  0
    1.6245   -2.8674   -1.1854 Cl  0  0  0  0  0  0  0  0  0  0  0  0
    0.9591   -0.4357   -0.2722 C   0  0  0  0  0  0  0  0  0  0  0  0
   -1.9682    1.5153   -0.2642 N   0  0  0  0  0  0  0  0  0  0  0  0
   -2.2694    0.3068   -0.9800 C   0  0  0  0  0  0  0  0  0  0  0  0
   -3.7758    0.0726   -0.7743 C   0  0  0  0  0  0  0  0  0  0  0  0
   -3.8604    0.3005    0.7403 C   0  0  0  0  0  0  0  0  0  0  0  0
   -2.4268   -1.3759    0.9367 S   0  0  0  0  0  0  0  0  0  0  0  0
   -1.6990   -0.9298   -0.3870 C   0  0  0  0  0  0  0  0  0  0  0  0
   -0.2629   -1.1334   -0.6384 C   0  0  0  0  0  0  0  0  0  0  0  0
   -0.0155   -2.1502   -1.3354 O   0  0  0  0  0  0  0  0  0  0  0  0
   -2.7191   -2.0045    2.1355 O   0  0  0  0  0  1  0  0  0  0  0  0
  1  2  2  0
  2  3  1  0
  3  4  1  0
  4  5  2  0
  5  6  1  0
  6  7  1  0
  6  8  2  0
  8  9  1  0
  9 10  1  0
  9 11  2  0
  2 12  1  0
 12 13  1  0
 13 14  1  0
 14 15  1  0
 15 16  1  0
 16 17  1  0
 17 18  1  0
 18 19  2  0
 16 20  1  0
 11  4  1  0
 18 11  1  0
 17 13  1  0
M  CHG  1  20  -1
M  END
$$$$
