
     RDKit          3D

 20 21  0  0  0  0  0  0  0  0999 V2000
    2.3457    2.7845   -1.0969 O   0  0  0  0  0  0  0  0  0  0  0  0
    1.6960    2.0190   -0.2974 C   0  0  0  0  0  0  0  0  0  0  0  0
    0.3657    2.1593    0.0127 N   0  0  0  0  0  0  0  0  0  0  0  0
   -0.6379    1.3009    0.4544 C   0  0  0  0  0  0  0  0  0  0  0  0
   -1.3326    1.6736    1.6182 C   0  0  0  0  0  0  0  0  0  0  0  0
   -2.3508    0.9237    2.1540 C   0  0  0  0  0  0  0  0  0  0  0  0
   -3.1256    1.5306    3.6242 Cl  0  0  0  0  0  0  0  0  0  0  0  0
   -2.7523   -0.2564    1.5665 C   0  0  0  0  0  0  0  0  0  0  0  0
   -2.0709   -0.6236    0.4233 C   0  0  0  0  0  0  0  0  0  0  0  0
   -2.6224   -2.1420   -0.3078 Cl  0  0  0  0  0  0  0  0  0  0  0  0
   -1.0354    0.1259   -0.1333 C   0  0  0  0  0  0  0  0  0  0  0  0
    2.4593    0.9714    0.2765 N   0  0  0  0  0  0  0  0  0  0  0  0
    1.9710   -0.3703    0.5109 C   0  0  0  0  0  0  0  0  0  0  0  0
    2.9504   -1.3357   -0.1515 C   0  0  0  0  0  0  0  0  0  0  0  0
    2.2088   -2.2908   -1.0643 C   0  0  0  0  0  0  0  0  0  0  0  0
    1.5904   -1.5801   -2.2361 C   0  0  0  0  0  0  0  0  0  0  0  0
    0.9897   -0.2865   -1.7512 C   0  0  0  0  0  0  0  0  0  0  0  0
   -0.4244   -0.4078   -1.3543 C   0  0  0  0  0  0  0  0  0  0  0  0
   -1.1925   -1.0368   -2.1465 O   0  0  0  0  0  0  0  0  0  0  0  0
    0.9679   -3.1588   -0.1013 Cl  0  0  0  0  0  0  0  0  0  0  0  0
  1  2  2  0
  2  3  1  0
  3  4  1  0
  4  5  2  0
  5  6  1  0
  6  7  1  0
  6  8  2  0
  8  9  1  0
  9 10  1  0
  9 11  2  0
  2 12  1  0
 12 13  1  0
 13 14  1  0
 14 15  1  0
 15 16  1  0
 16 17  1  0
 17 18  1  0
 18 19  2  0
 15 20  1  0
 11  4  1  0
 18 11  1  0
M  END
$$$$
