
     RDKit          3D

 25 27  0  0  0  0  0  0  0  0999 V2000
   -0.9149    0.3942    0.1187 O   0  0  0  0  0  0  0  0  0  0  0  0
   -1.4182   -0.7374    0.2387 C   0  0  0  0  0  0  0  0  0  0  0  0
   -2.8355   -0.8245    0.0172 N   0  0  0  0  0  0  0  0  0  0  0  0
   -3.5845    0.3514   -0.3204 C   0  0  0  0  0  0  0  0  0  0  0  0
   -3.0059    1.5916   -0.4474 C   0  0  0  0  0  0  0  0  0  0  0  0
   -3.8203    2.6732   -0.7789 C   0  0  0  0  0  0  0  0  0  0  0  0
   -3.0403    4.2432   -0.9317 Cl  0  0  0  0  0  0  0  0  0  0  0  0
   -5.1795    2.5333   -0.9812 C   0  0  0  0  0  0  0  0  0  0  0  0
   -5.7564    1.2857   -0.8526 C   0  0  0  0  0  0  0  0  0  0  0  0
   -7.4643    1.0575   -1.0972 Cl  0  0  0  0  0  0  0  0  0  0  0  0
   -4.9335    0.2221   -0.5229 C   0  0  0  0  0  0  0  0  0  0  0  0
   -0.6267   -1.8226    0.5670 N   0  0  0  0  0  0  0  0  0  0  0  0
    0.7573   -1.8661    0.8065 C   0  0  0  0  0  0  0  0  0  0  0  0
    1.3732   -3.2203    1.1331 C   0  0  0  0  0  0  0  0  0  0  0  0
    2.5455   -2.8255    1.9932 C   0  0  0  0  0  0  0  0  0  0  0  0
    3.0553   -1.6383    1.1522 C   0  0  0  0  0  0  0  0  0  0  0  0
    1.7229   -0.9949    0.8110 C   0  0  0  0  0  0  0  0  0  0  0  0
    1.6330    0.4397    0.5353 C   0  0  0  0  0  0  0  0  0  0  0  0
    2.4545    0.9047   -0.6208 C   0  0  0  0  0  0  0  0  0  0  0  0
    3.9015    0.6405   -0.4379 C   0  0  0  0  0  0  0  0  0  0  0  0
    4.6420   -0.0737   -1.1843 N   0  0  0  0  0  0  0  0  0  0  0  0
    5.9866   -0.0967   -0.6916 C   0  0  0  0  0  0  0  0  0  0  0  0
    6.0441    0.6443    0.4060 C   0  0  0  0  0  0  0  0  0  0  0  0
    4.6986    1.2098    0.7000 C   0  0  0  0  0  0  0  0  0  0  0  0
    3.7654   -4.0914    2.1103 Cl  0  0  0  0  0  0  0  0  0  0  0  0
  1  2  2  0
  2  3  1  0
  3  4  1  0
  4  5  2  0
  5  6  1  0
  6  7  1  0
  6  8  2  0
  8  9  1  0
  9 10  1  0
  9 11  2  0
  2 12  1  0
 12 13  1  0
 13 14  1  0
 14 15  1  0
 15 16  1  0
 16 17  1  0
 17 18  1  0
 18 19  1  0
 19 20  1  0
 20 21  2  0
 21 22  1  0
 22 23  2  0
 23 24  1  0
 15 25  1  0
 11  4  1  0
 13 17  2  0
 24 20  1  0
M  END
$$$$
