
     RDKit          3D

 21 23  0  0  0  0  0  0  0  0999 V2000
    0.2280    3.8270    1.1020 O   0  0  0  0  0  0  0  0  0  0  0  0
    0.0503    2.6095    0.8703 C   0  0  0  0  0  0  0  0  0  0  0  0
    1.2923    1.8845    0.8483 N   0  0  0  0  0  0  0  0  0  0  0  0
    1.7595    0.6899    0.2049 C   0  0  0  0  0  0  0  0  0  0  0  0
    3.1367    0.7618    0.1628 C   0  0  0  0  0  0  0  0  0  0  0  0
    3.8786   -0.2513   -0.4028 C   0  0  0  0  0  0  0  0  0  0  0  0
    5.6326   -0.1981   -0.4762 Cl  0  0  0  0  0  0  0  0  0  0  0  0
    3.1815   -1.3252   -0.9171 C   0  0  0  0  0  0  0  0  0  0  0  0
    1.7917   -1.3930   -0.8721 C   0  0  0  0  0  0  0  0  0  0  0  0
    1.1114   -2.4483   -1.3777 F   0  0  0  0  0  0  0  0  0  0  0  0
    1.0523   -0.3771   -0.3052 C   0  0  0  0  0  0  0  0  0  0  0  0
   -1.3019    2.2342    0.6872 N   0  0  0  0  0  0  0  0  0  0  0  0
   -2.0448    1.0041    0.4696 C   0  0  0  0  0  0  0  0  0  0  0  0
   -3.4397    1.1134    0.8110 C   0  0  0  0  0  0  0  0  0  0  0  0
   -4.3048    0.1998    0.0275 C   0  0  0  0  0  0  0  0  0  0  0  0
   -3.0383   -1.2823   -0.0184 S   0  0  0  0  0  0  0  0  0  0  0  0
   -1.6217   -0.1273    0.0375 C   0  0  0  0  0  0  0  0  0  0  0  0
   -0.3549   -0.7473   -0.4153 C   0  0  0  0  0  0  0  0  0  0  0  0
   -0.5335   -1.8306   -1.0294 O   0  0  0  0  0  0  0  0  0  0  0  0
   -3.3166   -2.0683    1.7738 Cl  0  0  0  0  0  0  0  0  0  0  0  0
   -3.1587   -2.2754   -1.1809 F   0  0  0  0  0  0  0  0  0  0  0  0
  1  2  2  0
  2  3  1  0
  3  4  1  0
  4  5  2  0
  5  6  1  0
  6  7  1  0
  6  8  2  0
  8  9  1  0
  9 10  1  0
  9 11  2  0
  2 12  1  0
 12 13  1  0
 13 14  1  0
 14 15  1  0
 15 16  1  0
 16 17  1  0
 17 18  1  0
 18 19  2  0
 16 20  1  0
 16 21  1  0
 11  4  1  0
 18 11  1  0
 13 17  2  0
M  END
$$$$
