
     RDKit          3D

 30 32  0  0  0  0  0  0  0  0999 V2000
   -4.4060   -0.8129   -2.2902 C   0  0  0  0  0  0  0  0  0  0  0  0
   -5.4255   -1.3970   -1.3349 C   0  0  0  0  0  0  0  0  0  0  0  0
   -5.4474   -0.6707   -0.0261 C   0  0  2  0  0  0  0  0  0  0  0  0
   -5.7809    0.7712   -0.1305 C   0  0  0  0  0  0  0  0  0  0  0  0
   -4.2345   -0.9161    0.8105 C   0  0  2  0  0  0  0  0  0  0  0  0
   -3.0125   -0.5136    0.1584 N   0  0  0  0  0  0  0  0  0  0  0  0
   -2.5925    0.8246    0.0214 C   0  0  0  0  0  0  0  0  0  0  0  0
   -3.3242    1.7504    0.4956 O   0  0  0  0  0  0  0  0  0  0  0  0
   -1.3736    1.1226   -0.6366 N   0  0  0  0  0  0  0  0  0  0  0  0
   -0.9827    2.5007   -0.7889 C   0  0  0  0  0  0  0  0  0  0  0  0
    0.3578    2.6689   -0.1219 C   0  0  0  0  0  0  0  0  0  0  0  0
    1.2759    1.5831   -0.5487 C   0  0  0  0  0  0  0  0  0  0  0  0
    0.7769    0.6098   -1.5354 C   0  0  0  0  0  0  0  0  0  0  0  0
   -0.5453    0.0626   -1.1309 C   0  0  0  0  0  0  0  0  0  0  0  0
    2.6450    2.2062   -0.8957 C   0  0  0  0  0  0  0  0  0  0  0  0
    2.8222    2.2666    0.5358 N   0  0  0  0  0  0  0  0  0  0  0  0
    4.1104    2.4096    1.0785 C   0  0  0  0  0  0  0  0  0  0  0  0
    4.6758    3.7438    0.6056 C   0  0  0  0  0  0  0  0  0  0  0  0
    5.0287    1.3381    0.5433 C   0  0  0  0  0  0  0  0  0  0  0  0
    2.1333    1.0121    0.6047 C   0  0  0  0  0  0  0  0  0  0  0  0
    2.8224   -0.1829    0.0704 C   0  0  0  0  0  0  0  0  0  0  0  0
    3.3960   -0.2669   -1.1742 C   0  0  0  0  0  0  0  0  0  0  0  0
    4.0295   -1.4290   -1.5795 C   0  0  0  0  0  0  0  0  0  0  0  0
    4.1045   -2.5205   -0.7644 C   0  0  0  0  0  0  0  0  0  0  0  0
    4.8958   -4.0228   -1.2194 Cl  0  0  0  0  0  0  0  0  0  0  0  0
    3.5290   -2.4292    0.4768 C   0  0  0  0  0  0  0  0  0  0  0  0
    2.8947   -1.2808    0.8973 C   0  0  0  0  0  0  0  0  0  0  0  0
   -4.1034   -2.3911    1.0747 C   0  0  0  0  0  0  0  0  0  0  0  0
   -5.1310   -2.9985    1.7114 F   0  0  0  0  0  0  0  0  0  0  0  0
   -3.1382   -3.0382    0.7472 O   0  0  0  0  0  0  0  0  0  0  0  0
  1  2  1  0
  2  3  1  0
  3  4  1  6
  3  5  1  0
  5  6  1  6
  6  7  1  0
  7  8  2  0
  7  9  1  0
  9 10  1  0
 10 11  1  0
 11 12  1  0
 12 13  1  0
 13 14  1  0
 12 15  1  0
 15 16  1  0
 16 17  1  0
 17 18  1  0
 17 19  1  0
 16 20  1  0
 20 21  1  0
 21 22  2  0
 22 23  1  0
 23 24  2  0
 24 25  1  0
 24 26  1  0
 26 27  2  0
  5 28  1  0
 28 29  1  0
 28 30  2  0
 14  9  1  0
 20 12  1  0
 27 21  1  0
M  END
$$$$
