
     RDKit          3D

 22 25  0  0  0  0  0  0  0  0999 V2000
    0.3911    3.7545    0.4782 O   0  0  0  0  0  0  0  0  0  0  0  0
    0.2660    2.5029    0.4636 C   0  0  0  0  0  0  0  0  0  0  0  0
    1.4684    1.8148    0.8307 N   0  0  0  0  0  0  0  0  0  0  0  0
    2.0237    0.5320    0.5537 C   0  0  0  0  0  0  0  0  0  0  0  0
    3.3518    0.5685    0.9504 C   0  0  0  0  0  0  0  0  0  0  0  0
    4.1642   -0.5362    0.8086 C   0  0  0  0  0  0  0  0  0  0  0  0
    5.8527   -0.4915    1.3123 Cl  0  0  0  0  0  0  0  0  0  0  0  0
    3.6025   -1.6693    0.2596 C   0  0  0  0  0  0  0  0  0  0  0  0
    2.2758   -1.7018   -0.1354 C   0  0  0  0  0  0  0  0  0  0  0  0
    1.7237   -2.8233   -0.6776 F   0  0  0  0  0  0  0  0  0  0  0  0
    1.4554   -0.6000    0.0032 C   0  0  0  0  0  0  0  0  0  0  0  0
   -1.0570    2.0719    0.0809 N   0  0  0  0  0  0  0  0  0  0  0  0
   -1.6429    0.8264   -0.3081 C   0  0  0  0  0  0  0  0  0  0  0  0
   -3.1199    0.8820   -0.4986 C   0  0  0  0  0  0  0  0  0  0  0  0
   -3.5766   -0.5098   -0.7570 C   0  0  0  0  0  0  0  0  0  0  0  0
   -2.3252   -1.3003   -0.9282 C   0  0  0  0  0  0  0  0  0  0  0  0
   -1.1972   -0.3832   -0.5453 C   0  0  0  0  0  0  0  0  0  0  0  0
    0.1343   -0.9769   -0.5076 C   0  0  0  0  0  0  0  0  0  0  0  0
    0.1784   -2.1194   -1.0565 O   0  0  0  0  0  0  0  0  0  0  0  0
   -4.5949   -0.6396   -1.7829 N   0  0  0  0  0  0  0  0  0  0  0  0
   -3.8834    0.0620    0.5592 C   0  0  0  0  0  0  0  0  0  0  0  0
   -5.4909    0.7362    0.8968 Cl  0  0  0  0  0  0  0  0  0  0  0  0
  1  2  2  0
  2  3  1  0
  3  4  1  0
  4  5  2  0
  5  6  1  0
  6  7  1  0
  6  8  2  0
  8  9  1  0
  9 10  1  0
  9 11  2  0
  2 12  1  0
 12 13  1  0
 13 14  1  0
 14 15  1  0
 15 16  1  0
 16 17  1  0
 17 18  1  0
 18 19  2  0
 15 20  1  0
 15 21  1  0
 21 22  1  0
 11  4  1  0
 18 11  1  0
 13 17  2  0
 21 14  1  0
M  END
$$$$
