
     RDKit          3D

 21 23  0  0  0  0  0  0  0  0999 V2000
    1.2589   -0.0831   -3.8312 O   0  0  0  0  0  0  0  0  0  0  0  0
    0.8454    0.0480   -2.6310 C   0  0  0  0  0  0  0  0  0  0  0  0
    1.9042    0.0705   -1.6649 N   0  0  0  0  0  0  0  0  0  0  0  0
    1.9524   -0.0618   -0.2483 C   0  0  0  0  0  0  0  0  0  0  0  0
    3.2925   -0.0173    0.1165 C   0  0  0  0  0  0  0  0  0  0  0  0
    3.7125   -0.1169    1.4215 C   0  0  0  0  0  0  0  0  0  0  0  0
    5.3885   -0.0643    1.9097 Cl  0  0  0  0  0  0  0  0  0  0  0  0
    2.7688   -0.2690    2.4300 C   0  0  0  0  0  0  0  0  0  0  0  0
    1.4402   -0.3153    2.0905 C   0  0  0  0  0  0  0  0  0  0  0  0
    0.5258   -0.4634    3.0750 F   0  0  0  0  0  0  0  0  0  0  0  0
    1.0325   -0.2143    0.7788 C   0  0  0  0  0  0  0  0  0  0  0  0
   -0.5584    0.1443   -2.4895 N   0  0  0  0  0  0  0  0  0  0  0  0
   -1.5404   -0.2589   -1.5015 C   0  0  0  0  0  0  0  0  0  0  0  0
   -2.9066   -0.5431   -2.0048 C   0  0  0  0  0  0  0  0  0  0  0  0
   -3.7779   -0.5670   -0.7683 C   0  0  0  0  0  0  0  0  0  0  0  0
   -2.7951   -0.8608    0.3504 C   0  0  0  0  0  0  0  0  0  0  0  0
   -1.5011   -0.4390   -0.2082 C   0  0  0  0  0  0  0  0  0  0  0  0
   -0.4168   -0.3003    0.7816 C   0  0  0  0  0  0  0  0  0  0  0  0
   -0.8933   -0.2416    1.9453 O   0  0  0  0  0  0  0  0  0  0  0  0
   -4.3599    0.8216   -0.4941 C   0  0  0  0  0  0  0  0  0  0  0  0
   -5.3722    0.7938    0.9425 Cl  0  0  0  0  0  0  0  0  0  0  0  0
  1  2  2  0
  2  3  1  0
  3  4  1  0
  4  5  2  0
  5  6  1  0
  6  7  1  0
  6  8  2  0
  8  9  1  0
  9 10  1  0
  9 11  2  0
  2 12  1  0
 12 13  1  0
 13 14  1  0
 14 15  1  0
 15 16  1  0
 16 17  1  0
 17 18  1  0
 18 19  2  0
 15 20  1  0
 20 21  1  0
 11  4  1  0
 18 11  1  0
 13 17  2  0
M  END
$$$$
