
     RDKit          3D

 29 33  0  0  0  0  0  0  0  0999 V2000
    3.5429    0.9809   -0.2728 O   0  0  0  0  0  0  0  0  0  0  0  0
    2.7762    0.2437   -0.9689 C   0  0  0  0  0  0  0  0  0  0  0  0
    3.2013   -0.2586   -2.1927 N   0  0  0  0  0  0  0  0  0  0  0  0
    4.4628   -0.0230   -2.7846 C   0  0  0  0  0  0  0  0  0  0  0  0
    5.3345    1.1047   -2.4796 C   0  0  0  0  0  0  0  0  0  0  0  0
    5.7620   -0.3728   -2.1916 C   0  0  0  0  0  0  0  0  0  0  0  0
    5.9692   -0.5603   -0.7349 C   0  0  0  0  0  0  0  0  0  0  0  0
    5.4542   -1.6084   -0.0125 C   0  0  0  0  0  0  0  0  0  0  0  0
    5.6752   -1.7158    1.3605 C   0  0  0  0  0  0  0  0  0  0  0  0
    6.4250   -0.7479    1.9823 C   0  0  0  0  0  0  0  0  0  0  0  0
    6.9434    0.3009    1.2673 C   0  0  0  0  0  0  0  0  0  0  0  0
    6.7180    0.3991   -0.0882 C   0  0  0  0  0  0  0  0  0  0  0  0
    1.4985   -0.0460   -0.4581 N   0  0  0  0  0  0  0  0  0  0  0  0
    0.5813   -0.8657   -1.2297 C   0  0  0  0  0  0  0  0  0  0  0  0
   -0.6797   -0.0557   -1.4138 C   0  0  0  0  0  0  0  0  0  0  0  0
   -1.2858    0.2923   -0.0537 C   0  0  0  0  0  0  0  0  0  0  0  0
   -2.6111   -0.3259    0.0260 C   0  0  0  0  0  0  0  0  0  0  0  0
   -3.6868    0.3293    0.5176 N   0  0  0  0  0  0  0  0  0  0  0  0
   -4.7631   -0.5021    0.4564 C   0  0  0  0  0  0  0  0  0  0  0  0
   -6.1287   -0.1793    0.8834 C   0  0  0  0  0  0  0  0  0  0  0  0
   -7.1604   -1.0714    0.7618 C   0  0  0  0  0  0  0  0  0  0  0  0
   -8.4437   -0.7572    1.1609 C   0  0  0  0  0  0  0  0  0  0  0  0
   -8.7573    0.4633    1.6979 C   0  0  0  0  0  0  0  0  0  0  0  0
   -7.7245    1.3997    1.8337 C   0  0  0  0  0  0  0  0  0  0  0  0
   -6.4361    1.0561    1.4234 C   0  0  0  0  0  0  0  0  0  0  0  0
   -4.3027   -1.6403   -0.0715 N   0  0  0  0  0  0  0  0  0  0  0  0
   -3.0329   -1.5089   -0.3163 O   0  0  0  0  0  0  0  0  0  0  0  0
   -0.3682   -0.1274    1.0529 C   0  0  0  0  0  0  0  0  0  0  0  0
    1.0367    0.4365    0.8447 C   0  0  0  0  0  0  0  0  0  0  0  0
  1  2  2  0
  2  3  1  0
  3  4  1  0
  4  5  1  0
  5  6  1  0
  6  7  1  0
  7  8  2  0
  8  9  1  0
  9 10  2  0
 10 11  1  0
 11 12  2  0
  2 13  1  0
 13 14  1  0
 14 15  1  0
 15 16  1  0
 16 17  1  0
 17 18  2  0
 18 19  1  0
 19 20  1  0
 20 21  2  0
 21 22  1  0
 22 23  2  0
 23 24  1  0
 24 25  2  0
 19 26  2  0
 26 27  1  0
 16 28  1  0
 28 29  1  0
  6  4  1  0
 12  7  1  0
 29 13  1  0
 27 17  1  0
 25 20  1  0
M  END
$$$$
