
     RDKit          3D

 24 26  0  0  0  0  0  0  0  0999 V2000
   -0.6056   -3.5523   -0.3491 O   0  0  0  0  0  0  0  0  0  0  0  0
   -0.6502   -2.3026   -0.4154 C   0  0  0  0  0  0  0  0  0  0  0  0
   -1.7921   -1.7020   -1.0637 N   0  0  0  0  0  0  0  0  0  0  0  0
   -2.2668   -0.3616   -0.9959 C   0  0  0  0  0  0  0  0  0  0  0  0
   -3.5508   -0.1578   -1.4144 C   0  0  0  0  0  0  0  0  0  0  0  0
   -4.1629    1.0825   -1.4123 C   0  0  0  0  0  0  0  0  0  0  0  0
   -5.8094    1.3244   -1.9524 Cl  0  0  0  0  0  0  0  0  0  0  0  0
   -3.4081    2.1430   -0.9580 C   0  0  0  0  0  0  0  0  0  0  0  0
   -2.0970    1.9676   -0.5249 C   0  0  0  0  0  0  0  0  0  0  0  0
   -1.3899    3.0365   -0.0860 F   0  0  0  0  0  0  0  0  0  0  0  0
   -1.5134    0.7174   -0.5388 C   0  0  0  0  0  0  0  0  0  0  0  0
    0.4545   -1.6367    0.1702 N   0  0  0  0  0  0  0  0  0  0  0  0
    1.1282   -2.4414    1.1976 C   0  0  0  0  0  0  0  0  0  0  0  0
    0.7101   -1.8226    2.5391 C   0  0  0  0  0  0  0  0  0  0  0  0
    0.9485   -0.3430    2.5541 C   0  0  0  0  0  0  0  0  0  0  0  0
    2.0767    0.0447    1.2879 S   0  0  0  0  0  0  0  0  0  0  0  0
    0.9095   -0.3093   -0.1721 C   0  0  0  0  0  0  0  0  0  0  0  0
   -0.1320    0.7285   -0.0486 C   0  0  0  0  0  0  0  0  0  0  0  0
    0.1885    1.7757    0.5575 O   0  0  0  0  0  0  0  0  0  0  0  0
    3.4976   -1.2822    1.1588 Cl  0  0  0  0  0  0  0  0  0  0  0  0
    2.6916    1.7160    1.1185 C   0  0  0  0  0  0  0  0  0  0  0  0
    3.6455    1.7455   -0.0584 C   0  0  0  0  0  0  0  0  0  0  0  0
    4.9860    0.5742    0.3289 S   0  0  0  0  0  0  0  0  0  0  0  0
    6.1414    0.5064   -0.9225 F   0  0  0  0  0  0  0  0  0  0  0  0
  1  2  2  0
  2  3  1  0
  3  4  1  0
  4  5  2  0
  5  6  1  0
  6  7  1  0
  6  8  2  0
  8  9  1  0
  9 10  1  0
  9 11  2  0
  2 12  1  0
 12 13  1  0
 13 14  1  0
 14 15  1  0
 15 16  1  0
 16 17  1  0
 17 18  1  0
 18 19  2  0
 16 20  1  0
 16 21  1  0
 21 22  1  0
 22 23  1  0
 23 24  1  0
 11  4  1  0
 18 11  1  0
 17 12  1  0
M  END
$$$$
