
     RDKit          3D

 25 26  0  0  0  0  0  0  0  0999 V2000
   -5.0607    0.7314   -1.7374 C   0  0  0  0  0  0  0  0  0  0  0  0
   -6.3740    0.5129   -1.0312 C   0  0  0  0  0  0  0  0  0  0  0  0
   -6.2058    0.6943    0.4389 C   0  0  2  0  0  0  0  0  0  0  0  0
   -5.7132    2.1094    0.7454 C   0  0  0  0  0  0  0  0  0  0  0  0
   -5.3210   -0.3370    1.0719 C   0  0  0  0  0  3  0  0  0  0  0  0
   -3.9850   -0.2044    0.5123 N   0  0  0  0  0  0  0  0  0  0  0  0
   -2.8447   -0.2448    1.3806 C   0  0  0  0  0  0  0  0  0  0  0  0
   -3.0783   -0.3972    2.6040 O   0  0  0  0  0  0  0  0  0  0  0  0
   -1.5408   -0.1139    0.8390 N   0  0  0  0  0  0  0  0  0  0  0  0
   -1.3700    0.0700   -0.5561 C   0  0  0  0  0  0  0  0  0  0  0  0
   -0.0432   -0.3082   -1.1390 C   0  0  0  0  0  0  0  0  0  0  0  0
    0.9993   -0.2747   -0.1053 C   0  0  0  0  0  0  0  0  0  0  0  0
    0.6465   -1.0323    1.1349 C   0  0  0  0  0  0  0  0  0  0  0  0
   -0.4472   -0.1816    1.8014 C   0  0  0  0  0  0  0  0  0  0  0  0
    1.4525    1.1658    0.1876 C   0  0  0  0  0  0  0  0  0  0  0  0
    2.7125    0.5238    0.5068 N   0  0  0  0  0  0  0  0  0  0  0  0
    3.7437    0.7513    1.4563 C   0  0  0  0  0  0  0  0  0  0  0  0
    4.8614   -0.2537    1.4527 C   0  0  0  0  0  0  0  0  0  0  0  0
    3.2169    0.9736    2.8630 C   0  0  0  0  0  0  0  0  0  0  0  0
    2.4265   -0.3885   -0.5280 C   0  0  0  0  0  0  0  0  0  0  0  0
    3.0054   -1.0756   -1.4778 C   0  0  0  0  0  0  0  0  0  0  0  0
    4.4019   -1.1403   -1.8324 C   0  0  0  0  0  3  0  0  0  0  0  0
    5.1686    0.0960   -1.8415 C   0  0  0  0  0  0  0  0  0  0  0  0
    5.1615    1.0971   -2.6596 C   0  0  0  0  0  0  0  0  0  0  0  0
    4.1870    1.3095   -4.0866 Cl  0  0  0  0  0  0  0  0  0  0  0  0
  1  2  1  0
  2  3  1  0
  3  4  1  6
  3  5  1  0
  5  6  1  0
  6  7  1  0
  7  8  2  0
  7  9  1  0
  9 10  1  0
 10 11  1  0
 11 12  1  0
 12 13  1  0
 13 14  1  0
 12 15  1  0
 15 16  1  0
 16 17  1  0
 17 18  1  0
 17 19  1  0
 16 20  1  0
 20 21  2  3
 21 22  1  0
 22 23  1  0
 23 24  2  3
 24 25  1  0
 14  9  1  0
 20 12  1  0
M  RAD  2   5   2  22   2
M  END
$$$$
