
     RDKit          3D

 11 11  0  0  0  0  0  0  0  0999 V2000
    3.3767    0.1935    1.0042 O   0  0  0  0  0  0  0  0  0  0  0  0
    2.8636   -0.3723    0.0049 C   0  0  0  0  0  0  0  0  0  0  0  0
    1.4867   -0.1394   -0.2588 N   0  0  0  0  0  0  0  0  0  0  0  0
    0.8026    0.7242    0.6427 C   0  0  0  0  0  0  0  0  0  0  0  0
   -0.5127    0.8317    0.8169 C   0  0  0  0  0  0  0  0  0  0  0  0
   -1.5433    0.0768    0.1108 C   0  0  0  0  0  0  0  0  0  0  0  0
   -2.7956    0.4833    0.1718 C   0  0  0  0  0  0  0  0  0  0  0  0
   -3.0439    1.5987    0.9023 F   0  0  0  0  0  0  0  0  0  0  0  0
    1.0174   -0.8440   -1.4320 C   0  0  0  0  0  0  0  0  0  0  0  0
   -0.2972   -1.4574   -1.2946 C   0  0  0  0  0  0  0  0  0  0  0  0
   -1.3543   -1.0951   -0.6684 N   0  0  0  0  0  0  0  0  0  0  0  0
  1  2  2  0
  2  3  1  0
  3  4  1  0
  4  5  2  0
  5  6  1  0
  6  7  2  3
  7  8  1  0
  3  9  1  0
  9 10  1  0
 10 11  2  0
 11  6  1  0
M  END
$$$$
