
     RDKit          3D

 11 11  0  0  0  0  0  0  0  0999 V2000
   -3.2960   -1.0901   -0.5998 O   0  0  0  0  0  0  0  0  0  0  0  0
   -2.8665   -0.2843    0.2282 C   0  0  0  0  0  0  0  0  0  0  0  0
   -1.4703   -0.1103    0.3922 N   0  0  0  0  0  0  0  0  0  0  0  0
   -0.6835   -0.9240   -0.4577 C   0  0  0  0  0  0  0  0  0  0  0  0
    0.6235   -0.7826   -0.7393 C   0  0  0  0  0  0  0  0  0  0  0  0
    1.5101    0.2448   -0.2253 C   0  0  0  0  0  0  0  0  0  0  0  0
    2.7952    0.0718   -0.4799 C   0  0  0  0  0  0  0  0  0  0  0  0
    3.2266   -0.9926   -1.1707 F   0  0  0  0  0  0  0  0  0  0  0  0
   -1.1287    0.8642    1.3961 C   0  0  0  0  0  0  0  0  0  0  0  0
    0.1001    1.6091    1.1528 C   0  0  0  0  0  0  0  0  0  0  0  0
    1.1897    1.3938    0.5034 N   0  0  0  0  0  0  0  0  0  0  0  0
  1  2  2  0
  2  3  1  0
  3  4  1  0
  4  5  2  0
  5  6  1  0
  6  7  2  3
  7  8  1  0
  3  9  1  0
  9 10  1  0
 10 11  2  0
 11  6  1  0
M  END
$$$$
