
     RDKit          3D

 29 33  0  0  0  0  0  0  0  0999 V2000
   -3.2476    0.2276   -0.7912 O   0  0  0  0  0  0  0  0  0  0  0  0
   -2.3467   -0.3853   -0.1738 C   0  0  0  0  0  0  0  0  0  0  0  0
   -2.6080   -0.9843    1.1036 N   0  0  0  0  0  0  0  0  0  0  0  0
   -3.9318   -0.8538    1.6429 C   0  0  0  0  0  0  0  0  0  0  0  0
   -4.0787    0.1482    2.7406 C   0  0  0  0  0  0  0  0  0  0  0  0
   -4.5851    0.5324    1.3372 C   0  0  0  0  0  0  0  0  0  0  0  0
   -6.0588    0.3972    1.1737 C   0  0  0  0  0  0  0  0  0  0  0  0
   -6.5673    0.0843   -0.0687 C   0  0  0  0  0  0  0  0  0  0  0  0
   -7.9396   -0.0448   -0.2196 C   0  0  0  0  0  0  0  0  0  0  0  0
   -8.8210    0.1309    0.8420 C   0  0  0  0  0  0  0  0  0  0  0  0
   -8.3028    0.4413    2.0698 C   0  0  0  0  0  0  0  0  0  0  0  0
   -6.9280    0.5712    2.2232 C   0  0  0  0  0  0  0  0  0  0  0  0
   -1.0757   -0.4835   -0.7399 N   0  0  0  0  0  0  0  0  0  0  0  0
   -0.6944    0.0922   -2.0398 C   0  0  0  0  0  0  0  0  0  0  0  0
    0.6188   -0.6653   -2.3724 C   0  0  0  0  0  0  0  0  0  0  0  0
    1.2960   -0.4535   -1.0056 C   0  0  0  0  0  0  0  0  0  0  0  0
    2.7429   -0.7391   -1.0615 C   0  0  0  0  0  0  0  0  0  0  0  0
    3.7365   -0.1719   -0.3354 N   0  0  0  0  0  0  0  0  0  0  0  0
    4.9227   -0.7165   -0.6900 C   0  0  0  0  0  0  0  0  0  0  0  0
    6.2241   -0.3728   -0.1325 C   0  0  0  0  0  0  0  0  0  0  0  0
    7.3484   -1.0226   -0.5903 C   0  0  0  0  0  0  0  0  0  0  0  0
    8.6049   -0.7329   -0.0841 C   0  0  0  0  0  0  0  0  0  0  0  0
    8.7275    0.2179    0.8897 C   0  0  0  0  0  0  0  0  0  0  0  0
    7.6009    0.8631    1.3427 C   0  0  0  0  0  0  0  0  0  0  0  0
    6.3994    0.5490    0.8217 N   0  0  0  0  0  0  0  0  0  0  0  0
    4.6291   -1.6200   -1.6410 N   0  0  0  0  0  0  0  0  0  0  0  0
    3.3391   -1.6226   -1.8499 O   0  0  0  0  0  0  0  0  0  0  0  0
    1.0594    1.0108   -0.7258 C   0  0  0  0  0  0  0  0  0  0  0  0
   -0.0645    1.4460   -1.6657 C   0  0  0  0  0  0  0  0  0  0  0  0
  1  2  2  0
  2  3  1  0
  3  4  1  0
  4  5  1  0
  5  6  1  0
  6  7  1  0
  7  8  2  0
  8  9  1  0
  9 10  2  0
 10 11  1  0
 11 12  2  0
  2 13  1  0
 13 14  1  0
 14 15  1  0
 15 16  1  0
 16 17  1  0
 17 18  2  0
 18 19  1  0
 19 20  1  0
 20 21  2  0
 21 22  1  0
 22 23  2  0
 23 24  1  0
 24 25  2  0
 19 26  2  0
 26 27  1  0
 16 28  1  0
 28 29  1  0
  6  4  1  0
 12  7  1  0
 29 14  1  0
 27 17  1  0
 25 20  1  0
M  END
$$$$
