
     RDKit          3D

 11 11  0  0  0  0  0  0  0  0999 V2000
    3.7349   -0.2184    0.5593 O   0  0  0  0  0  0  0  0  0  0  0  0
    2.6426   -0.5888    1.0119 C   0  0  0  0  0  0  0  0  0  0  0  0
    1.3872   -0.1613    0.4873 N   0  0  0  0  0  0  0  0  0  0  0  0
    0.2339   -0.6852    1.1279 C   0  0  0  0  0  0  0  0  0  0  0  0
   -1.0631   -0.6175    0.7799 C   0  0  0  0  0  0  0  0  0  0  0  0
   -1.5751    0.0543   -0.4067 C   0  0  0  0  0  0  0  0  0  0  0  0
   -2.8644    0.3405   -0.4423 C   0  0  0  0  0  0  0  0  0  0  0  0
   -3.6020   -0.0174    0.6334 F   0  0  0  0  0  0  0  0  0  0  0  0
    1.5090    0.7320   -0.6065 C   0  0  0  0  0  0  0  0  0  0  0  0
    0.4267    0.7119   -1.5792 C   0  0  0  0  0  0  0  0  0  0  0  0
   -0.8297    0.4498   -1.5650 N   0  0  0  0  0  0  0  0  0  0  0  0
  1  2  2  0
  2  3  1  0
  3  4  1  0
  4  5  2  0
  5  6  1  0
  6  7  2  3
  7  8  1  0
  3  9  1  0
  9 10  1  0
 10 11  2  0
 11  6  1  0
M  END
$$$$
