
     RDKit          3D

 30 34  0  0  0  0  0  0  0  0999 V2000
    2.0288   -1.3290    0.7861 O   0  0  0  0  0  0  0  0  0  0  0  0
    2.2453   -1.9607   -0.2571 C   0  0  0  0  0  0  0  0  0  0  0  0
    3.6293   -2.2360   -0.5647 N   0  0  0  0  0  0  0  0  0  0  0  0
    4.6866   -1.7608    0.3300 C   0  0  0  0  0  0  0  0  0  0  0  0
    4.1961   -0.6854    1.3583 C   0  0  0  0  0  0  0  0  0  0  0  0
    4.9513   -0.2390    0.1317 C   0  0  0  0  0  0  0  0  0  0  0  0
    6.3458    0.2140    0.2464 C   0  0  0  0  0  0  0  0  0  0  0  0
    6.8909    0.4309    1.4883 C   0  0  0  0  0  0  0  0  0  0  0  0
    8.2129    0.8648    1.5762 C   0  0  0  0  0  0  0  0  0  0  0  0
    8.9514    1.0693    0.4557 C   0  0  0  0  0  0  0  0  0  0  0  0
    8.4225    0.8521   -0.7962 C   0  0  0  0  0  0  0  0  0  0  0  0
    7.1202    0.4256   -0.8587 C   0  0  0  0  0  0  0  0  0  0  0  0
    1.1920   -2.3737   -1.0797 N   0  0  0  0  0  0  0  0  0  0  0  0
   -0.1980   -2.1048   -0.8086 C   0  0  0  0  0  0  0  0  0  0  0  0
   -0.5179   -0.7231   -0.7397 C   0  0  0  0  0  0  0  0  0  0  0  0
   -1.6826   -0.1065   -1.3800 C   0  0  0  0  0  0  0  0  0  0  0  0
   -2.9457   -0.2181   -0.6041 C   0  0  0  0  0  0  0  0  0  0  0  0
   -4.0077    0.6040   -0.6925 N   0  0  0  0  0  0  0  0  0  0  0  0
   -4.9741    0.1895    0.1590 C   0  0  0  0  0  0  0  0  0  0  0  0
   -6.2889    0.8001    0.3591 C   0  0  0  0  0  0  0  0  0  0  0  0
   -7.1453    0.2538    1.2705 C   0  0  0  0  0  0  0  0  0  0  0  0
   -8.3804    0.8209    1.4723 C   0  0  0  0  0  0  0  0  0  0  0  0
   -8.7353    1.9429    0.7480 C   0  0  0  0  0  0  0  0  0  0  0  0
   -7.8683    2.4925   -0.1698 C   0  0  0  0  0  0  0  0  0  0  0  0
   -6.6629    1.8869   -0.3287 N   0  0  0  0  0  0  0  0  0  0  0  0
   -4.4570   -0.8956    0.7536 N   0  0  0  0  0  0  0  0  0  0  0  0
   -3.2672   -1.1299    0.3042 O   0  0  0  0  0  0  0  0  0  0  0  0
   -1.3000    1.3875   -1.3219 C   0  0  0  0  0  0  0  0  0  0  0  0
   -0.4524    1.4124   -0.0800 C   0  0  0  0  0  0  0  0  0  0  0  0
    0.0106    0.1154    0.1391 O   0  0  0  0  0  0  0  0  0  0  0  0
  1  2  2  0
  2  3  1  0
  3  4  1  0
  4  5  1  0
  5  6  1  0
  6  7  1  0
  7  8  2  0
  8  9  1  0
  9 10  2  0
 10 11  1  0
 11 12  2  0
  2 13  1  0
 13 14  1  0
 14 15  1  0
 15 16  1  0
 16 17  1  0
 17 18  2  0
 18 19  1  0
 19 20  1  0
 20 21  2  0
 21 22  1  0
 22 23  2  0
 23 24  1  0
 24 25  2  0
 19 26  2  0
 26 27  1  0
 16 28  1  0
 28 29  1  0
 29 30  1  0
  6  4  1  0
 12  7  1  0
 30 15  1  0
 27 17  1  0
 25 20  1  0
M  END
$$$$
