
     RDKit          3D

 17 16  0  0  0  0  0  0  0  0999 V2000
   14.3381   -5.4487   -7.9358 O   0  0  0  0  0  0  0  0  0  0  0  0
   13.5879   -5.4219   -6.7393 C   0  0  0  0  0  0  0  0  0  0  0  0
   14.4253   -5.8911   -5.5944 C   0  0  0  0  0  3  0  0  0  0  0  0
   15.0794   -4.7881   -4.9517 N   0  0  0  0  0  0  0  0  0  0  0  0
   16.4826   -4.9436   -4.8263 C   0  0  2  0  0  0  0  0  0  0  0  0
   16.9350   -5.4081   -3.5005 C   0  0  0  0  0  0  0  0  0  0  0  0
   16.2547   -4.9883   -2.3962 O   0  0  0  0  0  0  0  0  0  0  0  0
   17.2254   -3.6971   -5.1924 C   0  0  1  0  0  0  0  0  0  0  0  0
   18.5125   -3.8119   -4.7856 O   0  0  0  0  0  0  0  0  0  0  0  0
   17.0301   -3.5469   -6.6879 C   0  0  2  0  0  0  0  0  0  0  0  0
   18.3221   -3.8209   -7.2614 O   0  0  0  0  0  0  0  0  0  0  0  0
   16.7683   -2.0726   -7.0518 C   0  0  0  0  0  3  0  0  0  0  0  0
   15.3325   -1.8153   -6.7836 C   0  0  0  0  0  3  0  0  0  0  0  0
   14.9728   -0.7533   -6.0131 O   0  0  0  0  0  0  0  0  0  0  0  0
   14.2959   -1.0737   -4.8560 C   0  0  2  0  0  0  0  0  0  0  0  0
   13.4767    0.0743   -4.5721 N   0  0  0  0  0  1  0  0  0  0  0  0
   15.0077   -1.5683   -3.8665 O   0  0  0  0  0  0  0  0  0  0  0  0
  1  2  1  0
  2  3  1  0
  3  4  1  0
  4  5  1  0
  5  6  1  1
  6  7  1  0
  5  8  1  0
  8  9  1  6
  8 10  1  0
 10 11  1  6
 10 12  1  0
 12 13  1  0
 13 14  1  0
 14 15  1  0
 15 16  1  1
 15 17  1  0
M  CHG  1  16   1
M  RAD  4   3   2  12   2  13   2  16   2
M  END
>  <docking_score>  (1) 
-3.3220000000000001

$$$$

     RDKit          3D

 17 16  0  0  0  0  0  0  0  0999 V2000
   13.9163   -5.5686   -7.2275 O   0  0  0  0  0  0  0  0  0  0  0  0
   13.4795   -5.2313   -5.9272 C   0  0  0  0  0  0  0  0  0  0  0  0
   13.9954   -3.8829   -5.5431 C   0  0  0  0  0  3  0  0  0  0  0  0
   15.3201   -3.9761   -5.0005 N   0  0  0  0  0  0  0  0  0  0  0  0
   15.6939   -2.8687   -4.1988 C   0  0  2  0  0  0  0  0  0  0  0  0
   16.1760   -1.6960   -4.9543 C   0  0  0  0  0  0  0  0  0  0  0  0
   17.5199   -1.4840   -5.0401 O   0  0  0  0  0  0  0  0  0  0  0  0
   16.7068   -3.2374   -3.1608 C   0  0  1  0  0  0  0  0  0  0  0  0
   16.4823   -2.5068   -2.0424 O   0  0  0  0  0  0  0  0  0  0  0  0
   16.5703   -4.7375   -2.9923 C   0  0  2  0  0  0  0  0  0  0  0  0
   16.0974   -4.9192   -1.6445 O   0  0  0  0  0  0  0  0  0  0  0  0
   17.9576   -5.4083   -2.9919 C   0  0  0  0  0  3  0  0  0  0  0  0
   18.1522   -5.9872   -4.3435 C   0  0  0  0  0  3  0  0  0  0  0  0
   18.3436   -7.3273   -4.4791 O   0  0  0  0  0  0  0  0  0  0  0  0
   17.4170   -7.9727   -5.2693 C   0  0  2  0  0  0  0  0  0  0  0  0
   18.1563   -8.4278   -6.4165 N   0  0  0  0  0  1  0  0  0  0  0  0
   16.2823   -7.3451   -5.4911 O   0  0  0  0  0  0  0  0  0  0  0  0
  1  2  1  0
  2  3  1  0
  3  4  1  0
  4  5  1  0
  5  6  1  6
  6  7  1  0
  5  8  1  0
  8  9  1  1
  8 10  1  0
 10 11  1  1
 10 12  1  0
 12 13  1  0
 13 14  1  0
 14 15  1  0
 15 16  1  6
 15 17  1  0
M  CHG  1  16   1
M  RAD  4   3   2  12   2  13   2  16   2
M  END
>  <docking_score>  (2) 
-3.1699999999999999

$$$$

     RDKit          3D

 17 16  0  0  0  0  0  0  0  0999 V2000
   16.5265   -4.1063   -1.6276 O   0  0  0  0  0  0  0  0  0  0  0  0
   17.9215   -4.0546   -1.8439 C   0  0  0  0  0  0  0  0  0  0  0  0
   18.3417   -5.1522   -2.7663 C   0  0  0  0  0  3  0  0  0  0  0  0
   17.2456   -5.5807   -3.5864 N   0  0  0  0  0  0  0  0  0  0  0  0
   17.6274   -6.4048   -4.6745 C   0  0  2  0  0  0  0  0  0  0  0  0
   18.5860   -5.7850   -5.6100 C   0  0  0  0  0  0  0  0  0  0  0  0
   19.8387   -6.3145   -5.7049 O   0  0  0  0  0  0  0  0  0  0  0  0
   16.4471   -6.9125   -5.4418 C   0  0  1  0  0  0  0  0  0  0  0  0
   16.4249   -8.2654   -5.3780 O   0  0  0  0  0  0  0  0  0  0  0  0
   15.2490   -6.2158   -4.8283 C   0  0  2  0  0  0  0  0  0  0  0  0
   14.4321   -7.2768   -4.2990 O   0  0  0  0  0  0  0  0  0  0  0  0
   14.3714   -5.5852   -5.9268 C   0  0  0  0  0  3  0  0  0  0  0  0
   15.1155   -4.4123   -6.4467 C   0  0  0  0  0  3  0  0  0  0  0  0
   15.3885   -3.3686   -5.6177 O   0  0  0  0  0  0  0  0  0  0  0  0
   16.5847   -2.7279   -5.8595 C   0  0  2  0  0  0  0  0  0  0  0  0
   16.8384   -1.9508   -4.6758 N   0  0  0  0  0  1  0  0  0  0  0  0
   16.7122   -2.1217   -7.0199 O   0  0  0  0  0  0  0  0  0  0  0  0
  1  2  1  0
  2  3  1  0
  3  4  1  0
  4  5  1  0
  5  6  1  6
  6  7  1  0
  5  8  1  0
  8  9  1  1
  8 10  1  0
 10 11  1  6
 10 12  1  0
 12 13  1  0
 13 14  1  0
 14 15  1  0
 15 16  1  1
 15 17  1  0
M  CHG  1  16   1
M  RAD  4   3   2  12   2  13   2  16   2
M  END
>  <docking_score>  (3) 
-3.0139999999999998

$$$$
