
     RDKit          3D

 36 37  0  0  0  0  0  0  0  0999 V2000
    8.0485   15.5851    6.3264 C   0  0  0  0  0  0  0  0  0  0  0  0
    6.9394   15.0664    5.4530 C   0  0  2  0  0  0  0  0  0  0  0  0
    5.6395   15.7621    5.8462 C   0  0  0  0  0  0  0  0  0  0  0  0
    6.7055   13.5815    5.6238 C   0  0  0  0  0  0  0  0  0  0  0  0
    5.8195   13.1374    4.4668 C   0  0  0  0  0  0  0  0  0  0  0  0
    5.3472   11.7137    4.6456 C   0  0  0  0  0  0  0  0  0  0  0  0
    4.0889   11.6536    5.4851 C   0  0  1  0  0  0  0  0  0  0  0  0
    3.0247   10.9490    4.6799 C   0  0  0  0  0  0  0  0  0  0  0  0
    4.4078   10.8842    6.7380 C   0  0  0  0  0  3  0  0  0  0  0  0
    3.8940   11.6096    7.9840 C   0  0  0  0  0  0  0  0  0  0  0  0
    3.3954   10.5678    8.9433 C   0  0  0  0  0  3  0  0  0  0  0  0
    4.0726   10.6381   10.2847 C   0  0  0  0  0  3  0  0  0  0  0  0
    3.8245   11.9381   10.9994 C   0  0  1  0  0  0  0  0  0  0  0  0
    2.3930   12.1139   11.4143 C   0  0  0  0  0  2  0  0  0  0  0  0
    4.6708   11.9323   12.2640 C   0  0  0  0  0  0  0  0  0  0  0  0
    5.7737   10.9364   12.1629 C   0  0  0  0  0  0  0  0  0  0  0  0
    5.4026    9.5004   12.3173 C   0  0  0  0  0  0  0  0  0  0  0  0
    6.9939   11.3597   11.9472 C   0  0  0  0  0  0  0  0  0  0  0  0
    7.3897   12.7824   11.7899 C   0  0  0  0  0  0  0  0  0  0  0  0
    8.5015   13.0533   12.7897 C   0  0  1  0  0  0  0  0  0  0  0  0
    9.6800   12.3974   12.4463 O   0  0  0  0  0  0  0  0  0  0  0  0
    8.7194   14.5381   12.8408 C   0  0  0  0  0  0  0  0  0  0  0  0
    9.7084   14.9332   11.7897 C   0  0  0  0  0  3  0  0  0  0  0  0
    8.9932   15.5156   10.5945 C   0  0  0  0  0  0  0  0  0  0  0  0
    9.9237   16.0349    9.7154 O   0  0  0  0  0  0  0  0  0  0  0  0
    9.3832   16.0092    8.4308 C   0  0  0  0  0  0  0  0  0  0  0  0
    9.8885   14.7523    7.7171 C   0  0  0  0  0  0  0  0  0  0  0  0
    9.2592   14.7092    6.3339 C   0  0  2  0  0  0  0  0  0  0  0  0
   10.2926   15.2419    5.3592 C   0  0  0  0  0  0  0  0  0  0  0  0
   10.7325   14.1322    4.4020 C   0  0  0  0  0  3  0  0  0  0  0  0
    9.5552   13.9063    3.4575 C   0  0  0  0  0  3  0  0  0  0  0  0
    9.3007   15.2359    2.7719 C   0  0  1  0  0  0  0  0  0  0  0  0
    8.6194   14.9946    1.5765 O   0  0  0  0  0  0  0  0  0  0  0  0
    8.4300   16.0748    3.6998 C   0  0  0  0  0  0  0  0  0  0  0  0
    7.1571   15.3336    3.9937 C   0  0  2  0  0  0  0  0  0  0  0  0
    5.9472   15.9975    3.3498 C   0  0  0  0  0  2  0  0  0  0  0  0
  1  2  1  0
  2  3  1  1
  2  4  1  0
  4  5  1  0
  5  6  1  0
  6  7  1  0
  7  8  1  6
  7  9  1  0
  9 10  1  0
 10 11  1  0
 11 12  1  0
 12 13  1  0
 13 14  1  1
 13 15  1  0
 15 16  1  0
 16 17  1  0
 16 18  2  3
 18 19  1  0
 19 20  1  0
 20 21  1  6
 20 22  1  0
 22 23  1  0
 23 24  1  0
 24 25  1  0
 25 26  1  0
 26 27  1  0
 28 27  1  1
 28 29  1  0
 29 30  1  0
 30 31  1  0
 31 32  1  0
 32 33  1  6
 32 34  1  0
 34 35  1  0
 35 36  1  1
 28  1  1  0
 35  2  1  0
M  RAD  8   9   2  11   2  12   2  14   3  23   2  30   2  31   2  36   3
M  END
>  <docking_score>  (1) 
-1.7330000000000001

$$$$

     RDKit          3D

 36 37  0  0  0  0  0  0  0  0999 V2000
    5.4233    9.3983    6.5488 C   0  0  0  0  0  0  0  0  0  0  0  0
    6.0809   10.4455    5.6928 C   0  0  2  0  0  0  0  0  0  0  0  0
    7.5747   10.4655    6.0034 C   0  0  0  0  0  0  0  0  0  0  0  0
    5.5615   11.8391    5.9700 C   0  0  0  0  0  0  0  0  0  0  0  0
    6.0462   12.7265    4.8305 C   0  0  0  0  0  0  0  0  0  0  0  0
    5.7644   14.1848    5.1059 C   0  0  0  0  0  0  0  0  0  0  0  0
    6.8746   14.8150    5.9195 C   0  0  1  0  0  0  0  0  0  0  0  0
    7.4055   15.9972    5.1465 C   0  0  0  0  0  0  0  0  0  0  0  0
    6.2893   15.2552    7.2336 C   0  0  0  0  0  3  0  0  0  0  0  0
    7.1635   14.8131    8.4096 C   0  0  0  0  0  0  0  0  0  0  0  0
    7.1370   15.9109    9.4335 C   0  0  0  0  0  3  0  0  0  0  0  0
    6.6597   15.4408   10.7805 C   0  0  0  0  0  3  0  0  0  0  0  0
    7.5565   14.3981   11.3893 C   0  0  1  0  0  0  0  0  0  0  0  0
    8.9095   14.9328   11.7581 C   0  0  0  0  0  2  0  0  0  0  0  0
    6.8905   13.9144   12.6692 C   0  0  0  0  0  0  0  0  0  0  0  0
    5.4362   14.2362   12.6679 C   0  0  0  0  0  0  0  0  0  0  0  0
    5.0591   15.6564   12.9221 C   0  0  0  0  0  0  0  0  0  0  0  0
    4.5735   13.2762   12.4479 C   0  0  0  0  0  0  0  0  0  0  0  0
    4.9224   11.8554   12.1924 C   0  0  0  0  0  0  0  0  0  0  0  0
    4.1473   11.0147   13.1932 C   0  0  1  0  0  0  0  0  0  0  0  0
    2.7814   11.0177   12.9265 O   0  0  0  0  0  0  0  0  0  0  0  0
    4.6932    9.6171   13.1369 C   0  0  0  0  0  0  0  0  0  0  0  0
    3.9699    8.8417   12.0810 C   0  0  0  0  0  3  0  0  0  0  0  0
    4.8103    8.7569   10.8298 C   0  0  0  0  0  0  0  0  0  0  0  0
    4.2088    7.8935    9.9347 O   0  0  0  0  0  0  0  0  0  0  0  0
    4.5927    8.2539    8.6442 C   0  0  0  0  0  0  0  0  0  0  0  0
    3.4938    9.1318    8.0388 C   0  0  0  0  0  0  0  0  0  0  0  0
    3.9406    9.5568    6.6492 C   0  0  2  0  0  0  0  0  0  0  0  0
    3.2510    8.6360    5.6600 C   0  0  0  0  0  0  0  0  0  0  0  0
    2.2679    9.4320    4.7994 C   0  0  0  0  0  3  0  0  0  0  0  0
    3.1251   10.2631    3.8488 C   0  0  0  0  0  3  0  0  0  0  0  0
    3.9628    9.2744    3.0593 C   0  0  1  0  0  0  0  0  0  0  0  0
    4.3677    9.8867    1.8708 O   0  0  0  0  0  0  0  0  0  0  0  0
    5.1848    8.9283    3.9018 C   0  0  0  0  0  0  0  0  0  0  0  0
    5.9410   10.1857    4.2226 C   0  0  2  0  0  0  0  0  0  0  0  0
    7.2823   10.2454    3.5038 C   0  0  0  0  0  2  0  0  0  0  0  0
  1  2  1  0
  2  3  1  1
  2  4  1  0
  4  5  1  0
  5  6  1  0
  6  7  1  0
  7  8  1  6
  7  9  1  0
  9 10  1  0
 10 11  1  0
 11 12  1  0
 12 13  1  0
 13 14  1  1
 13 15  1  0
 15 16  1  0
 16 17  1  0
 16 18  2  3
 18 19  1  0
 19 20  1  0
 20 21  1  6
 20 22  1  0
 22 23  1  0
 23 24  1  0
 24 25  1  0
 25 26  1  0
 26 27  1  0
 28 27  1  1
 28 29  1  0
 29 30  1  0
 30 31  1  0
 31 32  1  0
 32 33  1  6
 32 34  1  0
 34 35  1  0
 35 36  1  1
 28  1  1  0
 35  2  1  0
M  RAD  8   9   2  11   2  12   2  14   3  23   2  30   2  31   2  36   3
M  END
>  <docking_score>  (2) 
-1.2889999999999999

$$$$
