
     RDKit          3D

  9  8  0  0  0  0  0  0  0  0999 V2000
    7.5525   -7.6990   -7.9674 C   0  0  0  0  0  0  0  0  0  0  0  0
    6.8981   -6.7605   -8.7398 O   0  0  0  0  0  0  0  0  0  0  0  0
    5.8044   -6.1830   -8.1250 C   0  0  0  0  0  3  0  0  0  0  0  0
    5.6248   -4.8460   -8.4495 O   0  0  0  0  0  0  0  0  0  0  0  0
    5.1268   -4.2307   -7.1900 C   0  0  2  0  0  0  0  0  0  0  0  0
    3.5881   -4.4252   -7.2914 C   0  0  0  0  0  0  0  0  0  0  0  0
    5.3240   -2.7946   -7.4709 C   0  0  0  0  0  0  0  0  0  0  0  0
    5.8377   -1.8928   -6.5869 C   0  0  0  0  0  0  0  0  0  0  0  0
    6.2418   -2.1767   -5.3022 O   0  0  0  0  0  0  0  0  0  0  0  0
  1  2  1  0
  2  3  1  0
  3  4  1  0
  4  5  1  0
  5  6  1  6
  5  7  1  0
  7  8  2  3
  8  9  1  0
M  RAD  1   3   2
M  END
>  <docking_score>  (1) 
-3.4249999999999998

$$$$

     RDKit          3D

  9  8  0  0  0  0  0  0  0  0999 V2000
    6.8575    0.6953   -6.2786 C   0  0  0  0  0  0  0  0  0  0  0  0
    6.7157   -0.1067   -5.1641 O   0  0  0  0  0  0  0  0  0  0  0  0
    6.8236   -1.4595   -5.4214 C   0  0  0  0  0  3  0  0  0  0  0  0
    5.6107   -2.0709   -5.7042 O   0  0  0  0  0  0  0  0  0  0  0  0
    5.8950   -2.9034   -6.9039 C   0  0  2  0  0  0  0  0  0  0  0  0
    5.3343   -2.0402   -8.0683 C   0  0  0  0  0  0  0  0  0  0  0  0
    4.9003   -3.9837   -6.7498 C   0  0  0  0  0  0  0  0  0  0  0  0
    4.9178   -5.1606   -7.4377 C   0  0  0  0  0  0  0  0  0  0  0  0
    5.8534   -5.5190   -8.3814 O   0  0  0  0  0  0  0  0  0  0  0  0
  1  2  1  0
  2  3  1  0
  3  4  1  0
  4  5  1  0
  5  6  1  6
  5  7  1  0
  7  8  2  3
  8  9  1  0
M  RAD  1   3   2
M  END
>  <docking_score>  (2) 
-3.2679999999999998

$$$$

     RDKit          3D

  9  8  0  0  0  0  0  0  0  0999 V2000
   16.4870   -4.4501   -2.1440 C   0  0  0  0  0  0  0  0  0  0  0  0
   17.1309   -3.5139   -2.9279 O   0  0  0  0  0  0  0  0  0  0  0  0
   16.4141   -3.1153   -4.0393 C   0  0  0  0  0  3  0  0  0  0  0  0
   15.3621   -2.2596   -3.7459 O   0  0  0  0  0  0  0  0  0  0  0  0
   14.4714   -2.3591   -4.9333 C   0  0  2  0  0  0  0  0  0  0  0  0
   15.0253   -3.6039   -5.6813 C   0  0  0  0  0  0  0  0  0  0  0  0
   14.9404   -1.2178   -5.7443 C   0  0  0  0  0  0  0  0  0  0  0  0
   14.5580    0.0774   -5.5581 C   0  0  0  0  0  0  0  0  0  0  0  0
   13.6759    0.5185   -4.5980 O   0  0  0  0  0  0  0  0  0  0  0  0
  1  2  1  0
  2  3  1  0
  3  4  1  0
  4  5  1  0
  5  6  1  6
  5  7  1  0
  7  8  2  3
  8  9  1  0
M  RAD  1   3   2
M  END
>  <docking_score>  (3) 
-2.9609999999999999

$$$$
