
     RDKit          3D

 32 35  0  0  0  0  0  0  0  0999 V2000
   17.1572   -4.3859   -4.5614 C   0  0  1  0  0  0  0  0  0  0  0  0
   17.4739   -5.6902   -5.3741 C   0  0  2  0  0  0  0  0  0  0  0  0
   18.3891   -5.0135   -6.1443 C   0  0  0  0  0  0  0  0  0  0  0  0
   16.0300   -6.0078   -5.0435 C   0  0  0  0  0  0  0  0  0  0  0  0
   15.5272   -7.3080   -5.0680 C   0  0  0  0  0  0  0  0  0  0  0  0
   16.7962   -7.9820   -5.4593 C   0  0  0  0  0  0  0  0  0  0  0  0
   17.3466   -7.4610   -6.6102 C   0  0  0  0  0  0  0  0  0  0  0  0
   18.6850   -8.1953   -6.9190 C   0  0  0  0  0  0  0  0  0  0  0  0
   19.4202   -8.1084   -5.4732 C   0  0  0  0  0  0  0  0  0  0  0  0
   19.2165   -6.9717   -4.6437 C   0  0  0  0  0  0  0  0  0  0  0  0
   18.3802   -6.5218   -3.6008 C   0  0  0  0  0  3  0  0  0  0  0  0
   17.6671   -5.1523   -3.4743 C   0  0  2  0  0  0  0  0  0  0  0  0
   16.6571   -5.3294   -2.3595 C   0  0  0  0  0  0  0  0  0  0  0  0
   16.6056   -3.9648   -1.6570 C   0  0  0  0  0  0  0  0  0  0  0  0
   17.9599   -3.2565   -1.8294 C   0  0  0  0  0  3  0  0  0  0  0  0
   17.7245   -1.9676   -2.5341 C   0  0  2  0  0  0  0  0  0  0  0  0
   16.4714   -1.3494   -1.9301 C   0  0  0  0  0  2  0  0  0  0  0  0
   17.4819   -2.0840   -4.0150 C   0  0  0  0  0  0  0  0  0  0  0  0
   18.1512   -3.2481   -4.6521 C   0  0  1  0  0  0  0  0  0  0  0  0
   19.4711   -3.5712   -4.0925 C   0  0  0  0  0  0  0  0  0  0  0  0
   20.0770   -2.9053   -3.1141 C   0  0  0  0  0  0  0  0  0  0  0  0
   20.0009   -1.5169   -2.6583 C   0  0  0  0  0  3  0  0  0  0  0  0
   18.7509   -1.0466   -2.3591 O   0  0  0  0  0  0  0  0  0  0  0  0
   16.5700   -6.4299   -7.2139 C   0  0  0  0  0  0  0  0  0  0  0  0
   16.2617   -5.0775   -6.9320 C   0  0  2  0  0  0  0  0  0  0  0  0
   16.4870   -4.1889   -8.1343 C   0  0  0  0  0  0  0  0  0  0  0  0
   16.3039   -4.1620   -5.7217 C   0  0  1  0  0  0  0  0  0  0  0  0
   14.9663   -3.5876   -5.4767 C   0  0  0  0  0  0  0  0  0  0  0  0
   14.8881   -2.1330   -5.8145 C   0  0  0  0  0  0  0  0  0  0  0  0
   13.9753   -1.4529   -4.8436 C   0  0  0  0  0  0  0  0  0  0  0  0
   14.0427    0.0302   -4.9187 C   0  0  0  0  0  0  0  0  0  0  0  0
   14.7556    0.5894   -5.7026 O   0  0  0  0  0  0  0  0  0  0  0  0
  1  2  1  6
  2  3  1  6
  2  4  1  0
  4  5  2  3
  5  6  1  0
  6  7  2  3
  7  8  1  0
  8  9  1  0
  9 10  1  0
 10 11  1  0
 12 11  1  6
 12 13  1  0
 13 14  1  0
 14 15  1  0
 15 16  1  0
 16 17  1  1
 16 18  1  0
 18 19  1  0
 19 20  1  1
 20 21  2  0
 21 22  1  0
 22 23  1  0
  7 24  1  0
 24 25  1  0
 25 26  1  6
 25 27  1  0
 27 28  1  1
 28 29  1  0
 29 30  1  0
 30 31  1  0
 31 32  2  0
 12  1  1  0
 19  1  1  0
 27  1  1  0
 23 16  1  0
M  RAD  4  11   2  15   2  17   3  22   2
M  END
>  <docking_score>  (1) 
-7.0759999999999996

$$$$

     RDKit          3D

 32 35  0  0  0  0  0  0  0  0999 V2000
   18.1171   -3.7244   -4.4883 C   0  0  1  0  0  0  0  0  0  0  0  0
   18.9084   -3.1714   -3.2514 C   0  0  2  0  0  0  0  0  0  0  0  0
   18.1152   -3.8951   -2.3936 C   0  0  0  0  0  0  0  0  0  0  0  0
   19.0915   -1.9711   -4.1572 C   0  0  0  0  0  0  0  0  0  0  0  0
   20.1143   -1.0424   -3.9682 C   0  0  0  0  0  0  0  0  0  0  0  0
   20.7269   -1.6927   -2.7767 C   0  0  0  0  0  0  0  0  0  0  0  0
   19.8236   -1.9025   -1.7574 C   0  0  0  0  0  0  0  0  0  0  0  0
   20.5394   -2.6200   -0.5747 C   0  0  0  0  0  0  0  0  0  0  0  0
   21.2803   -3.8341   -1.3592 C   0  0  0  0  0  0  0  0  0  0  0  0
   20.6609   -4.4240   -2.4949 C   0  0  0  0  0  0  0  0  0  0  0  0
   20.6266   -4.3049   -3.9000 C   0  0  0  0  0  3  0  0  0  0  0  0
   19.3838   -4.2826   -4.8246 C   0  0  2  0  0  0  0  0  0  0  0  0
   19.8944   -3.8060   -6.1686 C   0  0  0  0  0  0  0  0  0  0  0  0
   19.0442   -4.5609   -7.2009 C   0  0  0  0  0  0  0  0  0  0  0  0
   18.5843   -5.8980   -6.5957 C   0  0  0  0  0  3  0  0  0  0  0  0
   17.0967   -5.9193   -6.5910 C   0  0  2  0  0  0  0  0  0  0  0  0
   16.6364   -5.3442   -7.9231 C   0  0  0  0  0  2  0  0  0  0  0  0
   16.4492   -5.0922   -5.5130 C   0  0  0  0  0  0  0  0  0  0  0  0
   17.2640   -4.9567   -4.2773 C   0  0  1  0  0  0  0  0  0  0  0  0
   18.0362   -6.1561   -3.9242 C   0  0  0  0  0  0  0  0  0  0  0  0
   18.0329   -7.3011   -4.5999 C   0  0  0  0  0  0  0  0  0  0  0  0
   17.0403   -7.9479   -5.4588 C   0  0  0  0  0  3  0  0  0  0  0  0
   16.5627   -7.1996   -6.5004 O   0  0  0  0  0  0  0  0  0  0  0  0
   18.5134   -1.4117   -2.0280 C   0  0  0  0  0  0  0  0  0  0  0  0
   17.4290   -1.7826   -2.8588 C   0  0  2  0  0  0  0  0  0  0  0  0
   16.1284   -1.8411   -2.0900 C   0  0  0  0  0  0  0  0  0  0  0  0
   17.2241   -2.6423   -4.0931 C   0  0  1  0  0  0  0  0  0  0  0  0
   16.6159   -1.8393   -5.1721 C   0  0  0  0  0  0  0  0  0  0  0  0
   15.3460   -2.4330   -5.6926 C   0  0  0  0  0  0  0  0  0  0  0  0
   14.1875   -1.8274   -4.9650 C   0  0  0  0  0  0  0  0  0  0  0  0
   14.2424   -0.3428   -4.9117 C   0  0  0  0  0  0  0  0  0  0  0  0
   13.4846    0.2915   -4.2344 O   0  0  0  0  0  0  0  0  0  0  0  0
  1  2  1  1
  2  3  1  1
  2  4  1  0
  4  5  2  3
  5  6  1  0
  6  7  2  3
  7  8  1  0
  8  9  1  0
  9 10  1  0
 10 11  1  0
 12 11  1  1
 12 13  1  0
 13 14  1  0
 14 15  1  0
 15 16  1  0
 16 17  1  6
 16 18  1  0
 18 19  1  0
 19 20  1  6
 20 21  2  0
 21 22  1  0
 22 23  1  0
  7 24  1  0
 24 25  1  0
 25 26  1  1
 25 27  1  0
 27 28  1  6
 28 29  1  0
 29 30  1  0
 30 31  1  0
 31 32  2  0
 12  1  1  0
 19  1  1  0
 27  1  1  0
 23 16  1  0
M  RAD  4  11   2  15   2  17   3  22   2
M  END
>  <docking_score>  (2) 
-6.3869999999999996

$$$$

     RDKit          3D

 32 35  0  0  0  0  0  0  0  0999 V2000
   17.3171   -4.2128   -5.5742 C   0  0  1  0  0  0  0  0  0  0  0  0
   18.3164   -5.1258   -4.7806 C   0  0  2  0  0  0  0  0  0  0  0  0
   17.3095   -6.0169   -4.4963 C   0  0  0  0  0  0  0  0  0  0  0  0
   18.9992   -3.8011   -4.5092 C   0  0  0  0  0  0  0  0  0  0  0  0
   20.3403   -3.7149   -4.1373 C   0  0  0  0  0  0  0  0  0  0  0  0
   20.6263   -5.1762   -4.1637 C   0  0  0  0  0  0  0  0  0  0  0  0
   19.7636   -5.9051   -3.3742 C   0  0  0  0  0  0  0  0  0  0  0  0
   20.1100   -7.4189   -3.4948 C   0  0  0  0  0  0  0  0  0  0  0  0
   20.1822   -7.5867   -5.1088 C   0  0  0  0  0  0  0  0  0  0  0  0
   19.3221   -6.8169   -5.9388 C   0  0  0  0  0  0  0  0  0  0  0  0
   19.2976   -5.5958   -6.6444 C   0  0  0  0  0  3  0  0  0  0  0  0
   18.1729   -4.5307   -6.6677 C   0  0  2  0  0  0  0  0  0  0  0  0
   18.7986   -3.3029   -7.2965 C   0  0  0  0  0  0  0  0  0  0  0  0
   17.6613   -2.6488   -8.0948 C   0  0  0  0  0  0  0  0  0  0  0  0
   16.6595   -3.7327   -8.5274 C   0  0  0  0  0  3  0  0  0  0  0  0
   15.3298   -3.3932   -7.9531 C   0  0  2  0  0  0  0  0  0  0  0  0
   15.1394   -1.8923   -8.1212 C   0  0  0  0  0  2  0  0  0  0  0  0
   15.1727   -3.6900   -6.4859 C   0  0  0  0  0  0  0  0  0  0  0  0
   16.0009   -4.8255   -6.0022 C   0  0  1  0  0  0  0  0  0  0  0  0
   16.1471   -5.9248   -6.9664 C   0  0  0  0  0  0  0  0  0  0  0  0
   15.5945   -5.9682   -8.1748 C   0  0  0  0  0  0  0  0  0  0  0  0
   14.3865   -5.3658   -8.7399 C   0  0  0  0  0  3  0  0  0  0  0  0
   14.2706   -4.0083   -8.6103 O   0  0  0  0  0  0  0  0  0  0  0  0
   18.8171   -5.1150   -2.6597 C   0  0  0  0  0  0  0  0  0  0  0  0
   17.6555   -4.3697   -2.9741 C   0  0  2  0  0  0  0  0  0  0  0  0
   16.5012   -4.7199   -2.0627 C   0  0  0  0  0  0  0  0  0  0  0  0
   17.0358   -3.7588   -4.2180 C   0  0  1  0  0  0  0  0  0  0  0  0
   16.8277   -2.3109   -4.0191 C   0  0  0  0  0  0  0  0  0  0  0  0
   15.3820   -1.9382   -3.9346 C   0  0  0  0  0  0  0  0  0  0  0  0
   15.1620   -0.6576   -4.6763 C   0  0  0  0  0  0  0  0  0  0  0  0
   13.7784   -0.1321   -4.5372 C   0  0  0  0  0  0  0  0  0  0  0  0
   12.8214   -0.8478   -4.6217 O   0  0  0  0  0  0  0  0  0  0  0  0
  1  2  1  1
  2  3  1  1
  2  4  1  0
  4  5  2  3
  5  6  1  0
  6  7  2  3
  7  8  1  0
  8  9  1  0
  9 10  1  0
 10 11  1  0
 12 11  1  1
 12 13  1  0
 13 14  1  0
 14 15  1  0
 15 16  1  0
 16 17  1  1
 16 18  1  0
 18 19  1  0
 19 20  1  6
 20 21  2  0
 21 22  1  0
 22 23  1  0
  7 24  1  0
 24 25  1  0
 25 26  1  6
 25 27  1  0
 27 28  1  6
 28 29  1  0
 29 30  1  0
 30 31  1  0
 31 32  2  0
 12  1  1  0
 19  1  1  0
 27  1  1  0
 23 16  1  0
M  RAD  4  11   2  15   2  17   3  22   2
M  END
>  <docking_score>  (3) 
-5.6109999999999998

$$$$
