
     RDKit          3D

 25 25  0  0  0  0  0  0  0  0999 V2000
   16.5749   -3.8806   -1.2367 C   0  0  0  0  0  0  0  0  0  0  0  0
   17.3614   -2.9715   -2.1540 C   0  0  1  0  0  0  0  0  0  0  0  0
   18.8142   -3.2829   -2.0142 C   0  0  0  0  0  0  0  0  0  0  0  0
   19.2112   -4.6726   -2.3213 C   0  0  2  0  0  0  0  0  0  0  0  0
   20.5755   -4.6722   -2.6528 O   0  0  0  0  0  0  0  0  0  0  0  0
   18.4800   -5.3324   -3.4366 C   0  0  2  0  0  0  0  0  0  0  0  0
   19.1995   -5.2966   -4.6206 O   0  0  0  0  0  0  0  0  0  0  0  0
   17.0916   -4.8273   -3.6784 C   0  0  1  0  0  0  0  0  0  0  0  0
   16.1480   -5.4047   -2.8090 O   0  0  0  0  0  0  0  0  0  0  0  0
   16.9738   -3.3331   -3.5937 C   0  0  1  0  0  0  0  0  0  0  0  0
   15.6495   -2.9228   -3.8981 N   0  0  0  0  0  0  0  0  0  0  0  0
   15.4638   -2.2713   -5.1370 C   0  0  0  0  0  3  0  0  0  0  0  0
   16.0302   -2.9952   -6.3098 C   0  0  2  0  0  0  0  0  0  0  0  0
   17.1589   -2.3193   -6.9537 C   0  0  0  0  0  0  0  0  0  0  0  0
   17.6552   -1.2694   -6.2370 O   0  0  0  0  0  0  0  0  0  0  0  0
   19.0583   -1.2142   -6.3199 C   0  0  0  0  0  0  0  0  0  0  0  0
   15.2144   -3.9666   -6.9843 C   0  0  0  0  0  0  0  0  0  0  0  0
   15.0842   -5.2157   -6.4947 O   0  0  0  0  0  0  0  0  0  0  0  0
   15.5939   -6.1445   -7.4381 C   0  0  1  0  0  0  0  0  0  0  0  0
   15.4884   -5.4940   -8.6957 O   0  0  0  0  0  0  0  0  0  0  0  0
   17.1030   -6.2671   -7.1411 C   0  0  2  0  0  0  0  0  0  0  0  0
   17.8099   -6.0245   -8.4934 C   0  0  0  0  0  0  0  0  0  0  0  0
   17.4066   -7.6014   -6.6107 C   0  0  0  0  0  0  0  0  0  0  0  0
   17.0403   -7.9426   -5.3762 O   0  0  0  0  0  0  0  0  0  0  0  0
   17.9676   -8.5122   -7.4433 O   0  0  0  0  0  0  0  0  0  0  0  0
  2  1  1  1
  2  3  1  0
  3  4  1  0
  4  5  1  6
  4  6  1  0
  6  7  1  6
  6  8  1  0
  8  9  1  1
  8 10  1  0
 10 11  1  1
 11 12  1  0
 13 12  1  6
 13 14  1  0
 14 15  1  0
 15 16  1  0
 13 17  1  0
 17 18  1  0
 18 19  1  0
 19 20  1  6
 19 21  1  0
 21 22  1  6
 21 23  1  0
 23 24  1  0
 23 25  1  0
 10  2  1  0
M  RAD  1  12   2
M  END
>  <docking_score>  (1) 
-3.6589999999999998

$$$$

     RDKit          3D

 25 25  0  0  0  0  0  0  0  0999 V2000
   18.8364   -0.4267   -5.8273 C   0  0  0  0  0  0  0  0  0  0  0  0
   18.2507   -1.7809   -5.4956 C   0  0  1  0  0  0  0  0  0  0  0  0
   18.6762   -2.7602   -6.5381 C   0  0  0  0  0  0  0  0  0  0  0  0
   20.1336   -2.9370   -6.7046 C   0  0  2  0  0  0  0  0  0  0  0  0
   20.3555   -4.1936   -7.2901 O   0  0  0  0  0  0  0  0  0  0  0  0
   20.9484   -2.8727   -5.4613 C   0  0  2  0  0  0  0  0  0  0  0  0
   21.2615   -4.1345   -4.9811 O   0  0  0  0  0  0  0  0  0  0  0  0
   20.3658   -2.0466   -4.3568 C   0  0  1  0  0  0  0  0  0  0  0  0
   20.6245   -0.6728   -4.5160 O   0  0  0  0  0  0  0  0  0  0  0  0
   18.8879   -2.2411   -4.1781 C   0  0  1  0  0  0  0  0  0  0  0  0
   18.4183   -1.4805   -3.0756 N   0  0  0  0  0  0  0  0  0  0  0  0
   17.4031   -2.0718   -2.2924 C   0  0  0  0  0  3  0  0  0  0  0  0
   16.1617   -2.4146   -3.0419 C   0  0  2  0  0  0  0  0  0  0  0  0
   15.1564   -1.3498   -3.0713 C   0  0  0  0  0  0  0  0  0  0  0  0
   14.5586   -1.1885   -4.2875 O   0  0  0  0  0  0  0  0  0  0  0  0
   13.7434   -0.0425   -4.3062 C   0  0  0  0  0  0  0  0  0  0  0  0
   15.8386   -3.7988   -3.2510 C   0  0  0  0  0  0  0  0  0  0  0  0
   16.1847   -4.4214   -4.3954 O   0  0  0  0  0  0  0  0  0  0  0  0
   16.1651   -5.8249   -4.1901 C   0  0  1  0  0  0  0  0  0  0  0  0
   14.9561   -6.2716   -4.7855 O   0  0  0  0  0  0  0  0  0  0  0  0
   17.3085   -6.3967   -5.0539 C   0  0  2  0  0  0  0  0  0  0  0  0
   16.7403   -7.6861   -5.6880 C   0  0  0  0  0  0  0  0  0  0  0  0
   18.4792   -6.6835   -4.2166 C   0  0  0  0  0  0  0  0  0  0  0  0
   19.4978   -7.3979   -4.6926 O   0  0  0  0  0  0  0  0  0  0  0  0
   18.5480   -6.1118   -2.9894 O   0  0  0  0  0  0  0  0  0  0  0  0
  2  1  1  6
  2  3  1  0
  3  4  1  0
  4  5  1  1
  4  6  1  0
  6  7  1  1
  6  8  1  0
  8  9  1  6
  8 10  1  0
 10 11  1  1
 11 12  1  0
 13 12  1  1
 13 14  1  0
 14 15  1  0
 15 16  1  0
 13 17  1  0
 17 18  1  0
 18 19  1  0
 19 20  1  6
 19 21  1  0
 21 22  1  1
 21 23  1  0
 23 24  1  0
 23 25  1  0
 10  2  1  0
M  RAD  1  12   2
M  END
>  <docking_score>  (2) 
-3.359

$$$$

     RDKit          3D

 25 25  0  0  0  0  0  0  0  0999 V2000
   17.3784   -1.8908   -4.1826 C   0  0  0  0  0  0  0  0  0  0  0  0
   16.0253   -2.5613   -4.2616 C   0  0  1  0  0  0  0  0  0  0  0  0
   15.0275   -1.7243   -3.5332 C   0  0  0  0  0  0  0  0  0  0  0  0
   14.8644   -0.3392   -4.0211 C   0  0  2  0  0  0  0  0  0  0  0  0
   13.5974    0.1162   -3.6228 O   0  0  0  0  0  0  0  0  0  0  0  0
   14.9668   -0.1459   -5.4928 C   0  0  2  0  0  0  0  0  0  0  0  0
   13.7201   -0.0716   -6.0937 O   0  0  0  0  0  0  0  0  0  0  0  0
   15.8109   -1.1513   -6.2127 C   0  0  1  0  0  0  0  0  0  0  0  0
   17.1837   -0.8501   -6.1464 O   0  0  0  0  0  0  0  0  0  0  0  0
   15.6030   -2.5597   -5.7365 C   0  0  1  0  0  0  0  0  0  0  0  0
   16.3830   -3.4625   -6.5055 N   0  0  0  0  0  0  0  0  0  0  0  0
   15.7217   -4.1140   -7.5694 C   0  0  0  0  0  3  0  0  0  0  0  0
   15.5303   -5.5791   -7.3768 C   0  0  2  0  0  0  0  0  0  0  0  0
   14.7159   -5.9374   -6.2132 C   0  0  0  0  0  0  0  0  0  0  0  0
   15.3207   -6.8211   -5.3673 O   0  0  0  0  0  0  0  0  0  0  0  0
   15.8404   -6.1679   -4.2351 C   0  0  0  0  0  0  0  0  0  0  0  0
   16.4647   -6.4856   -7.9843 C   0  0  0  0  0  0  0  0  0  0  0  0
   17.7625   -6.4835   -7.6199 O   0  0  0  0  0  0  0  0  0  0  0  0
   18.1618   -7.8066   -7.2998 C   0  0  1  0  0  0  0  0  0  0  0  0
   18.9378   -8.2396   -8.4070 O   0  0  0  0  0  0  0  0  0  0  0  0
   19.1380   -7.6802   -6.1118 C   0  0  2  0  0  0  0  0  0  0  0  0
   20.4587   -8.3211   -6.5940 C   0  0  0  0  0  0  0  0  0  0  0  0
   18.6005   -8.3806   -4.9395 C   0  0  0  0  0  0  0  0  0  0  0  0
   17.7061   -9.3576   -5.0815 O   0  0  0  0  0  0  0  0  0  0  0  0
   19.1172   -8.0864   -3.7213 O   0  0  0  0  0  0  0  0  0  0  0  0
  2  1  1  6
  2  3  1  0
  3  4  1  0
  4  5  1  6
  4  6  1  0
  6  7  1  6
  6  8  1  0
  8  9  1  1
  8 10  1  0
 10 11  1  6
 11 12  1  0
 13 12  1  1
 13 14  1  0
 14 15  1  0
 15 16  1  0
 13 17  1  0
 17 18  1  0
 18 19  1  0
 19 20  1  6
 19 21  1  0
 21 22  1  6
 21 23  1  0
 23 24  1  0
 23 25  1  0
 10  2  1  0
M  RAD  1  12   2
M  END
>  <docking_score>  (3) 
-3.1760000000000002

$$$$
