
     RDKit          3D

 28 30  0  0  0  0  0  0  0  0999 V2000
   20.2560   -0.2379   -2.8893 C   0  0  0  0  0  0  0  0  0  0  0  0
   20.5387    0.7509   -3.8349 O   0  0  0  0  0  0  0  0  0  0  0  0
   20.4371    0.1608   -5.0871 C   0  0  0  0  0  0  0  0  0  0  0  0
   19.0721   -0.3518   -5.3935 C   0  0  0  0  0  0  0  0  0  0  0  0
   18.9727   -1.2009   -6.5948 C   0  0  0  0  0  0  0  0  0  0  0  0
   17.6838   -1.9372   -6.6946 C   0  0  0  0  0  0  0  0  0  0  0  0
   16.9091   -1.9424   -5.4959 C   0  0  2  0  0  0  0  0  0  0  0  0
   17.0076   -2.9969   -4.4858 C   0  0  0  0  0  0  0  0  0  0  0  0
   17.1811   -4.2549   -4.7710 C   0  0  0  0  0  0  0  0  0  0  0  0
   17.5653   -5.1694   -3.6850 C   0  0  1  0  0  0  0  0  0  0  0  0
   18.9342   -5.2056   -3.5492 O   0  0  0  0  0  0  0  0  0  0  0  0
   16.9329   -4.6448   -2.4094 C   0  0  0  0  0  0  0  0  0  0  0  0
   16.5274   -3.4084   -2.2046 C   0  0  0  0  0  0  0  0  0  0  0  0
   16.6320   -2.3190   -3.2149 C   0  0  2  0  0  0  0  0  0  0  0  0
   15.3689   -1.5144   -3.4193 C   0  0  0  0  0  0  0  0  0  0  0  0
   14.9135   -1.2081   -4.8593 C   0  0  0  0  0  0  0  0  0  0  0  0
   15.3503   -2.2015   -5.7238 C   0  0  2  0  0  0  0  0  0  0  0  0
   14.8412   -3.4229   -4.8511 C   0  0  0  0  0  0  0  0  0  0  0  0
   15.3572   -2.8715   -6.9386 C   0  0  1  0  0  0  0  0  0  0  0  0
   15.8633   -2.1915   -8.0722 O   0  0  0  0  0  0  0  0  0  0  0  0
   15.8924   -4.2346   -6.9409 C   0  0  0  0  0  0  0  0  0  0  0  0
   16.9112   -4.8799   -6.1434 C   0  0  2  0  0  0  0  0  0  0  0  0
   16.5875   -6.3344   -5.9083 C   0  0  1  0  0  0  0  0  0  0  0  0
   15.2795   -6.6194   -5.6551 O   0  0  0  0  0  0  0  0  0  0  0  0
   17.1918   -7.2152   -6.9223 C   0  0  0  0  0  0  0  0  0  0  0  0
   18.0117   -8.1806   -6.5082 C   0  0  0  0  0  0  0  0  0  0  0  0
   18.3385   -8.4020   -5.0691 C   0  0  0  0  0  0  0  0  0  0  0  0
   20.0711   -8.2322   -4.8003 Cl  0  0  0  0  0  0  0  0  0  0  0  0
  1  2  1  0
  2  3  1  0
  3  4  1  0
  4  5  1  0
  5  6  1  0
  7  6  1  6
  7  8  1  0
  8  9  2  0
  9 10  1  0
 10 11  1  1
 10 12  1  0
 12 13  2  0
 13 14  1  0
 14 15  1  6
 15 16  1  0
 16 17  1  0
 17 18  1  1
 17 19  1  0
 19 20  1  6
 19 21  1  0
 22 21  1  1
 22 23  1  0
 23 24  1  6
 23 25  1  0
 25 26  2  3
 26 27  1  0
 27 28  1  0
 17  7  1  0
 14  8  1  0
 22  9  1  0
M  END
>  <docking_score>  (1) 
-5.367

$$$$

     RDKit          3D

 28 30  0  0  0  0  0  0  0  0999 V2000
   19.4007   -4.1845   -8.7398 C   0  0  0  0  0  0  0  0  0  0  0  0
   20.2352   -4.5405   -7.6774 O   0  0  0  0  0  0  0  0  0  0  0  0
   20.2924   -3.4511   -6.8192 C   0  0  0  0  0  0  0  0  0  0  0  0
   19.6807   -2.2160   -7.3849 C   0  0  0  0  0  0  0  0  0  0  0  0
   18.9161   -1.3958   -6.4276 C   0  0  0  0  0  0  0  0  0  0  0  0
   17.4579   -1.6912   -6.4270 C   0  0  0  0  0  0  0  0  0  0  0  0
   16.8974   -1.9096   -5.1328 C   0  0  2  0  0  0  0  0  0  0  0  0
   17.1660   -3.1087   -4.3379 C   0  0  0  0  0  0  0  0  0  0  0  0
   17.2896   -4.2996   -4.8483 C   0  0  0  0  0  0  0  0  0  0  0  0
   17.8527   -5.3647   -4.0044 C   0  0  1  0  0  0  0  0  0  0  0  0
   19.2248   -5.3836   -4.1067 O   0  0  0  0  0  0  0  0  0  0  0  0
   17.4449   -5.0686   -2.5733 C   0  0  0  0  0  0  0  0  0  0  0  0
   17.0791   -3.8926   -2.1059 C   0  0  0  0  0  0  0  0  0  0  0  0
   17.0105   -2.6533   -2.9293 C   0  0  2  0  0  0  0  0  0  0  0  0
   15.7304   -1.8622   -2.7868 C   0  0  0  0  0  0  0  0  0  0  0  0
   15.0378   -1.3427   -4.0616 C   0  0  0  0  0  0  0  0  0  0  0  0
   15.3226   -2.1727   -5.1363 C   0  0  2  0  0  0  0  0  0  0  0  0
   14.9694   -3.5316   -4.4007 C   0  0  0  0  0  0  0  0  0  0  0  0
   15.1243   -2.6395   -6.4275 C   0  0  1  0  0  0  0  0  0  0  0  0
   15.4308   -1.7733   -7.5042 O   0  0  0  0  0  0  0  0  0  0  0  0
   15.6522   -3.9691   -6.7402 C   0  0  0  0  0  0  0  0  0  0  0  0
   16.7918   -4.7047   -6.2393 C   0  0  2  0  0  0  0  0  0  0  0  0
   16.5135   -6.1866   -6.1925 C   0  0  1  0  0  0  0  0  0  0  0  0
   15.2343   -6.5423   -5.8872 O   0  0  0  0  0  0  0  0  0  0  0  0
   17.0536   -6.8967   -7.3643 C   0  0  0  0  0  0  0  0  0  0  0  0
   17.7663   -8.0031   -7.1554 C   0  0  0  0  0  0  0  0  0  0  0  0
   18.0359   -8.5461   -5.7918 C   0  0  0  0  0  0  0  0  0  0  0  0
   16.8583   -9.7908   -5.3833 Cl  0  0  0  0  0  0  0  0  0  0  0  0
  1  2  1  0
  2  3  1  0
  3  4  1  0
  4  5  1  0
  5  6  1  0
  7  6  1  6
  7  8  1  0
  8  9  2  0
  9 10  1  0
 10 11  1  1
 10 12  1  0
 12 13  2  0
 13 14  1  0
 14 15  1  6
 15 16  1  0
 16 17  1  0
 17 18  1  1
 17 19  1  0
 19 20  1  6
 19 21  1  0
 22 21  1  1
 22 23  1  0
 23 24  1  6
 23 25  1  0
 25 26  2  3
 26 27  1  0
 27 28  1  0
 17  7  1  0
 14  8  1  0
 22  9  1  0
M  END
>  <docking_score>  (2) 
-5.133

$$$$

     RDKit          3D

 28 30  0  0  0  0  0  0  0  0999 V2000
   16.2712   -6.8365   -5.5656 C   0  0  0  0  0  0  0  0  0  0  0  0
   17.1017   -7.9055   -5.2203 O   0  0  0  0  0  0  0  0  0  0  0  0
   18.3869   -7.3985   -5.0864 C   0  0  0  0  0  0  0  0  0  0  0  0
   18.6290   -6.7309   -3.7767 C   0  0  0  0  0  0  0  0  0  0  0  0
   19.9567   -6.1085   -3.6224 C   0  0  0  0  0  0  0  0  0  0  0  0
   19.8972   -4.6504   -3.3330 C   0  0  0  0  0  0  0  0  0  0  0  0
   18.5785   -4.1057   -3.2984 C   0  0  2  0  0  0  0  0  0  0  0  0
   18.1428   -3.0125   -4.1684 C   0  0  0  0  0  0  0  0  0  0  0  0
   18.9036   -2.0115   -4.5049 C   0  0  0  0  0  0  0  0  0  0  0  0
   18.4672   -1.1452   -5.6106 C   0  0  1  0  0  0  0  0  0  0  0  0
   18.9107   -1.6428   -6.8145 O   0  0  0  0  0  0  0  0  0  0  0  0
   16.9503   -1.1176   -5.5898 C   0  0  0  0  0  0  0  0  0  0  0  0
   16.1728   -2.0203   -5.0278 C   0  0  0  0  0  0  0  0  0  0  0  0
   16.6771   -3.2272   -4.3154 C   0  0  2  0  0  0  0  0  0  0  0  0
   16.0583   -3.4725   -2.9584 C   0  0  0  0  0  0  0  0  0  0  0  0
   16.9831   -3.8327   -1.7795 C   0  0  0  0  0  0  0  0  0  0  0  0
   18.2430   -3.2842   -1.9712 C   0  0  2  0  0  0  0  0  0  0  0  0
   17.7412   -1.8209   -2.3172 C   0  0  0  0  0  0  0  0  0  0  0  0
   19.5116   -2.9165   -1.5469 C   0  0  1  0  0  0  0  0  0  0  0  0
   20.4266   -3.9433   -1.2125 O   0  0  0  0  0  0  0  0  0  0  0  0
   20.2153   -1.9150   -2.3509 C   0  0  0  0  0  0  0  0  0  0  0  0
   20.1789   -1.6013   -3.7618 C   0  0  2  0  0  0  0  0  0  0  0  0
   20.3728   -0.1248   -4.0030 C   0  0  1  0  0  0  0  0  0  0  0  0
   20.5219    0.6453   -2.8890 O   0  0  0  0  0  0  0  0  0  0  0  0
   21.3819    0.1469   -5.0406 C   0  0  0  0  0  0  0  0  0  0  0  0
   21.3319    1.3179   -5.6748 C   0  0  0  0  0  0  0  0  0  0  0  0
   20.3019    2.3557   -5.3767 C   0  0  0  0  0  0  0  0  0  0  0  0
   20.1094    3.4413   -6.7506 Cl  0  0  0  0  0  0  0  0  0  0  0  0
  1  2  1  0
  2  3  1  0
  3  4  1  0
  4  5  1  0
  5  6  1  0
  7  6  1  1
  7  8  1  0
  8  9  2  0
  9 10  1  0
 10 11  1  6
 10 12  1  0
 12 13  2  0
 13 14  1  0
 14 15  1  1
 15 16  1  0
 16 17  1  0
 17 18  1  6
 17 19  1  0
 19 20  1  6
 19 21  1  0
 22 21  1  1
 22 23  1  0
 23 24  1  1
 23 25  1  0
 25 26  2  3
 26 27  1  0
 27 28  1  0
 17  7  1  0
 14  8  1  0
 22  9  1  0
M  END
>  <docking_score>  (3) 
-4.4690000000000003

$$$$
