
     RDKit          3D

 29 29  0  0  0  0  0  0  0  0999 V2000
   15.3617   -1.5060   -3.4607 C   0  0  0  0  0  0  0  0  0  0  0  0
   14.6086   -1.0950   -4.7062 C   0  0  0  0  0  0  0  0  0  0  0  0
   13.4181   -0.2092   -4.3775 C   0  0  0  0  0  0  0  0  0  0  0  0
   15.5024   -0.4159   -5.7190 C   0  0  0  0  0  0  0  0  0  0  0  0
   16.1763   -1.4653   -6.6028 C   0  0  0  0  0  0  0  0  0  0  0  0
   15.2046   -2.5059   -7.0508 C   0  0  0  0  0  0  0  0  0  0  0  0
   15.7447   -3.9057   -6.8566 C   0  0  1  0  0  0  0  0  0  0  0  0
   17.2262   -3.9839   -7.1683 C   0  0  0  0  0  0  0  0  0  0  0  0
   15.4039   -4.4727   -5.5142 C   0  0  0  0  0  3  0  0  0  0  0  0
   14.8885   -5.8844   -5.7302 C   0  0  0  0  0  0  0  0  0  0  0  0
   15.9390   -6.7786   -6.3439 C   0  0  0  0  0  0  0  0  0  0  0  0
   16.3627   -7.7952   -5.3222 C   0  0  0  0  0  3  0  0  0  0  0  0
   17.5627   -8.5889   -5.7824 C   0  0  1  0  0  0  0  0  0  0  0  0
   18.1288   -8.0571   -7.0770 C   0  0  0  0  0  0  0  0  0  0  0  0
   18.5912   -8.5859   -4.6740 C   0  0  0  0  0  0  0  0  0  0  0  0
   19.3526   -7.2551   -4.6480 C   0  0  0  0  0  0  0  0  0  0  0  0
   18.6420   -6.3836   -3.6210 C   0  0  0  0  0  0  0  0  0  0  0  0
   18.8409   -4.9344   -4.0814 C   0  0  0  0  0  0  0  0  0  0  0  0
   18.1353   -4.0178   -3.0981 C   0  0  1  0  0  0  0  0  0  0  0  0
   17.3954   -4.7892   -2.2425 O   0  0  0  0  0  0  0  0  0  0  0  0
   19.1344   -3.1322   -2.4741 C   0  0  1  0  0  0  0  0  0  0  0  0
   20.1850   -3.8170   -1.6690 C   0  0  1  0  0  0  0  0  0  0  0  0
   21.3724   -4.1000   -2.5950 C   0  0  0  0  0  0  0  0  0  0  0  0
   20.6730   -2.8079   -0.6205 C   0  0  0  0  0  3  0  0  0  0  0  0
   20.7753   -1.5509   -1.1774 O   0  0  0  0  0  0  0  0  0  0  0  0
   19.5372   -0.9391   -1.3847 C   0  0  0  0  0  0  0  0  0  0  0  0
   19.2802   -0.8234   -2.7635 O   0  0  0  0  0  0  0  0  0  0  0  0
   19.6965   -2.0572   -3.3155 C   0  0  2  0  0  0  0  0  0  0  0  0
   19.3512   -2.1452   -4.7749 C   0  0  0  0  0  2  0  0  0  0  0  0
  1  2  1  0
  2  3  1  0
  2  4  1  0
  4  5  1  0
  5  6  1  0
  6  7  1  0
  7  8  1  1
  7  9  1  0
  9 10  1  0
 10 11  1  0
 11 12  1  0
 12 13  1  0
 13 14  1  6
 13 15  1  0
 15 16  1  0
 16 17  1  0
 17 18  1  0
 18 19  1  0
 19 20  1  1
 21 19  1  6
 21 22  1  0
 22 23  1  6
 22 24  1  0
 24 25  1  0
 25 26  1  0
 26 27  1  0
 27 28  1  0
 28 29  1  6
 28 21  1  0
M  RAD  4   9   2  12   2  24   2  29   3
M  END
>  <docking_score>  (1) 
-4.2140000000000004

$$$$

     RDKit          3D

 29 29  0  0  0  0  0  0  0  0999 V2000
   20.5288   -9.0036   -7.8967 C   0  0  0  0  0  0  0  0  0  0  0  0
   19.7392   -8.0011   -7.0851 C   0  0  0  0  0  0  0  0  0  0  0  0
   20.0078   -6.5748   -7.5366 C   0  0  0  0  0  0  0  0  0  0  0  0
   18.2547   -8.2864   -7.1082 C   0  0  0  0  0  0  0  0  0  0  0  0
   17.4809   -7.0479   -6.6565 C   0  0  0  0  0  0  0  0  0  0  0  0
   16.3428   -6.7510   -7.5755 C   0  0  0  0  0  0  0  0  0  0  0  0
   15.4934   -5.6046   -7.0725 C   0  0  1  0  0  0  0  0  0  0  0  0
   14.5082   -6.0585   -6.0136 C   0  0  0  0  0  0  0  0  0  0  0  0
   16.3121   -4.4299   -6.6374 C   0  0  0  0  0  3  0  0  0  0  0  0
   16.8020   -3.7235   -7.8888 C   0  0  0  0  0  0  0  0  0  0  0  0
   16.4812   -2.2482   -7.8637 C   0  0  0  0  0  0  0  0  0  0  0  0
   17.6079   -1.5219   -7.1857 C   0  0  0  0  0  3  0  0  0  0  0  0
   17.1121   -0.6251   -6.0759 C   0  0  1  0  0  0  0  0  0  0  0  0
   15.7145   -0.9901   -5.6369 C   0  0  0  0  0  0  0  0  0  0  0  0
   18.0980   -0.6915   -4.9314 C   0  0  0  0  0  0  0  0  0  0  0  0
   19.4269   -0.0354   -5.3251 C   0  0  0  0  0  0  0  0  0  0  0  0
   20.5083   -1.0676   -5.0348 C   0  0  0  0  0  0  0  0  0  0  0  0
   19.8701   -2.1016   -4.0992 C   0  0  0  0  0  0  0  0  0  0  0  0
   19.3330   -3.2442   -4.9424 C   0  0  1  0  0  0  0  0  0  0  0  0
   20.2603   -3.5449   -5.9038 O   0  0  0  0  0  0  0  0  0  0  0  0
   18.9418   -4.3495   -4.0497 C   0  0  1  0  0  0  0  0  0  0  0  0
   20.0023   -5.3605   -3.7775 C   0  0  1  0  0  0  0  0  0  0  0  0
   20.7479   -4.9257   -2.5114 C   0  0  0  0  0  0  0  0  0  0  0  0
   19.2887   -6.6768   -3.4399 C   0  0  0  0  0  3  0  0  0  0  0  0
   18.1846   -6.4339   -2.6509 O   0  0  0  0  0  0  0  0  0  0  0  0
   17.1150   -5.8801   -3.3576 C   0  0  0  0  0  0  0  0  0  0  0  0
   16.8988   -4.5521   -2.9447 O   0  0  0  0  0  0  0  0  0  0  0  0
   18.1926   -3.9925   -2.8287 C   0  0  2  0  0  0  0  0  0  0  0  0
   18.1251   -2.5217   -2.5309 C   0  0  0  0  0  2  0  0  0  0  0  0
  1  2  1  0
  2  3  1  0
  2  4  1  0
  4  5  1  0
  5  6  1  0
  6  7  1  0
  7  8  1  1
  7  9  1  0
  9 10  1  0
 10 11  1  0
 11 12  1  0
 12 13  1  0
 13 14  1  1
 13 15  1  0
 15 16  1  0
 16 17  1  0
 17 18  1  0
 18 19  1  0
 19 20  1  6
 21 19  1  1
 21 22  1  0
 22 23  1  1
 22 24  1  0
 24 25  1  0
 25 26  1  0
 26 27  1  0
 27 28  1  0
 28 29  1  6
 28 21  1  0
M  RAD  4   9   2  12   2  24   2  29   3
M  END
>  <docking_score>  (2) 
-1.8899999999999999

$$$$
