
     RDKit          3D

 11 11  0  0  0  0  0  0  0  0999 V2000
    5.7845   -3.7028   -7.0195 O   0  0  0  0  0  0  0  0  0  0  0  0
    4.8257   -2.7790   -6.5816 C   0  0  0  0  0  0  0  0  0  0  0  0
    5.5351   -1.5360   -6.1847 C   0  0  1  0  0  0  0  0  0  0  0  0
    6.8702   -1.7216   -5.7161 N   0  0  0  0  0  0  0  0  0  0  0  0
    7.3189   -0.5543   -5.0279 C   0  0  0  0  0  0  0  0  0  0  0  0
    7.1404    0.7250   -5.7582 C   0  0  2  0  0  0  0  0  0  0  0  0
    7.0281    1.7515   -4.7916 O   0  0  0  0  0  0  0  0  0  0  0  0
    5.9329    0.8031   -6.6240 C   0  0  1  0  0  0  0  0  0  0  0  0
    6.0821    1.8364   -7.5458 O   0  0  0  0  0  0  0  0  0  0  0  0
    5.5971   -0.5053   -7.3118 C   0  0  1  0  0  0  0  0  0  0  0  0
    6.7375   -0.8500   -8.0702 O   0  0  0  0  0  0  0  0  0  0  0  0
  1  2  1  0
  3  2  1  6
  3  4  1  0
  4  5  1  0
  5  6  1  0
  6  7  1  1
  6  8  1  0
  8  9  1  6
  8 10  1  0
 10 11  1  6
 10  3  1  0
M  END
>  <docking_score>  (1) 
-4.0750000000000002

$$$$

     RDKit          3D

 11 11  0  0  0  0  0  0  0  0999 V2000
    6.5221    2.2531   -4.8561 O   0  0  0  0  0  0  0  0  0  0  0  0
    6.1192    2.3177   -6.1970 C   0  0  0  0  0  0  0  0  0  0  0  0
    5.9347    0.9280   -6.6872 C   0  0  1  0  0  0  0  0  0  0  0  0
    6.5852    0.6275   -7.9213 N   0  0  0  0  0  0  0  0  0  0  0  0
    6.0557   -0.5751   -8.4788 C   0  0  0  0  0  0  0  0  0  0  0  0
    6.0078   -1.7380   -7.5583 C   0  0  2  0  0  0  0  0  0  0  0  0
    4.9600   -2.5811   -7.9964 O   0  0  0  0  0  0  0  0  0  0  0  0
    5.7416   -1.4121   -6.1311 C   0  0  1  0  0  0  0  0  0  0  0  0
    6.1213   -2.4835   -5.3262 O   0  0  0  0  0  0  0  0  0  0  0  0
    6.3925   -0.1216   -5.6745 C   0  0  1  0  0  0  0  0  0  0  0  0
    7.7769   -0.2820   -5.9034 O   0  0  0  0  0  0  0  0  0  0  0  0
  1  2  1  0
  3  2  1  1
  3  4  1  0
  4  5  1  0
  5  6  1  0
  6  7  1  6
  6  8  1  0
  8  9  1  1
  8 10  1  0
 10 11  1  6
 10  3  1  0
M  END
>  <docking_score>  (2) 
-4.0410000000000004

$$$$

     RDKit          3D

 11 11  0  0  0  0  0  0  0  0999 V2000
   15.1744   -1.5275   -3.5507 O   0  0  0  0  0  0  0  0  0  0  0  0
   14.9356   -1.9829   -4.8546 C   0  0  0  0  0  0  0  0  0  0  0  0
   14.8912   -3.4670   -4.8203 C   0  0  1  0  0  0  0  0  0  0  0  0
   14.3757   -4.0869   -5.9977 N   0  0  0  0  0  0  0  0  0  0  0  0
   14.0332   -5.4466   -5.7306 C   0  0  0  0  0  0  0  0  0  0  0  0
   15.0911   -6.2539   -5.0743 C   0  0  2  0  0  0  0  0  0  0  0  0
   14.4479   -7.2824   -4.3467 O   0  0  0  0  0  0  0  0  0  0  0  0
   15.9572   -5.5143   -4.1168 C   0  0  1  0  0  0  0  0  0  0  0  0
   17.1276   -6.2343   -3.8898 O   0  0  0  0  0  0  0  0  0  0  0  0
   16.2591   -4.0931   -4.5489 C   0  0  1  0  0  0  0  0  0  0  0  0
   16.8804   -4.1946   -5.8132 O   0  0  0  0  0  0  0  0  0  0  0  0
  1  2  1  0
  3  2  1  6
  3  4  1  0
  4  5  1  0
  5  6  1  0
  6  7  1  1
  6  8  1  0
  8  9  1  6
  8 10  1  0
 10 11  1  6
 10  3  1  0
M  END
>  <docking_score>  (3) 
-3.6139999999999999

$$$$
