
     RDKit          3D

 27 28  0  0  0  0  0  0  0  0999 V2000
   14.0500   -3.2297   -5.0085 O   0  0  0  0  0  0  0  0  0  0  0  0
   13.8676   -1.9060   -5.0651 O   0  0  0  0  0  0  0  0  0  0  0  0
   15.0092   -1.3041   -4.5322 C   0  0  0  0  0  3  0  0  0  0  0  0
   15.8304   -0.7646   -5.5236 O   0  0  0  0  0  0  0  0  0  0  0  0
   17.0582   -1.3913   -5.5634 C   0  0  2  0  0  0  0  0  0  0  0  0
   18.2267   -0.4755   -5.6239 C   0  0  0  0  0  0  0  0  0  0  0  0
   17.0808   -2.4468   -6.6798 C   0  0  1  0  0  0  0  0  0  0  0  0
   17.7672   -3.5983   -6.0921 N   0  0  0  0  0  0  0  0  0  0  0  0
   19.0800   -3.7917   -6.6275 C   0  0  0  0  0  3  0  0  0  0  0  0
   19.7928   -4.7497   -5.6629 C   0  0  0  0  0  0  0  0  0  0  0  0
   21.0742   -5.2659   -6.2216 C   0  0  0  0  0  3  0  0  0  0  0  0
   21.0060   -5.2938   -7.5930 O   0  0  0  0  0  0  0  0  0  0  0  0
   21.3151   -6.6470   -5.6198 C   0  0  0  0  0  0  0  0  0  0  0  0
   20.8243   -7.7323   -6.5211 C   0  0  0  0  0  0  0  0  0  0  0  0
   19.6225   -8.3087   -6.0774 O   0  0  0  0  0  0  0  0  0  0  0  0
   19.0052   -8.8507   -7.1953 C   0  0  0  0  0  0  0  0  0  0  0  0
   17.7033   -9.2318   -6.9888 O   0  0  0  0  0  0  0  0  0  0  0  0
   17.3101   -9.2079   -5.6612 C   0  0  2  0  0  0  0  0  0  0  0  0
   16.2948  -10.1751   -5.5247 O   0  0  0  0  0  0  0  0  0  0  0  0
   16.7910   -7.8334   -5.2949 C   0  0  0  0  0  3  0  0  0  0  0  0
   15.4423   -7.9418   -5.0069 O   0  0  0  0  0  0  0  0  0  0  0  0
   14.8840   -6.7793   -4.5135 C   0  0  0  0  0  3  0  0  0  0  0  0
   14.9038   -5.7050   -5.5970 C   0  0  0  0  0  3  0  0  0  0  0  0
   15.6145   -2.9142   -6.7581 C   0  0  1  0  0  0  0  0  0  0  0  0
   15.6102   -4.0261   -7.5971 O   0  0  0  0  0  0  0  0  0  0  0  0
   15.3603   -3.4532   -5.3405 C   0  0  2  0  0  0  0  0  0  0  0  0
   15.8001   -4.7376   -5.1861 O   0  0  0  0  0  0  0  0  0  0  0  0
  1  2  1  0
  2  3  1  0
  3  4  1  0
  4  5  1  0
  5  6  1  6
  5  7  1  0
  7  8  1  1
  8  9  1  0
  9 10  1  0
 10 11  1  0
 11 12  1  0
 11 13  1  0
 13 14  1  0
 14 15  1  0
 15 16  1  0
 16 17  1  0
 17 18  1  0
 18 19  1  6
 18 20  1  0
 20 21  1  0
 21 22  1  0
 22 23  1  0
  7 24  1  0
 24 25  1  6
 24 26  1  0
 26 27  1  6
 26  1  1  0
 27 23  1  0
M  RAD  6   3   2   9   2  11   2  20   2  22   2  23   2
M  END
>  <docking_score>  (1) 
-5.742

$$$$

     RDKit          3D

 27 28  0  0  0  0  0  0  0  0999 V2000
   19.6158   -0.0244   -3.4958 O   0  0  0  0  0  0  0  0  0  0  0  0
   20.5428    0.2337   -2.5670 O   0  0  0  0  0  0  0  0  0  0  0  0
   20.3922   -0.7136   -1.5524 C   0  0  0  0  0  3  0  0  0  0  0  0
   21.3825   -1.6962   -1.5996 O   0  0  0  0  0  0  0  0  0  0  0  0
   20.8500   -2.9428   -1.8536 C   0  0  2  0  0  0  0  0  0  0  0  0
   21.3446   -4.0273   -0.9667 C   0  0  0  0  0  0  0  0  0  0  0  0
   20.9958   -3.2899   -3.3434 C   0  0  1  0  0  0  0  0  0  0  0  0
   19.7200   -3.9064   -3.7104 N   0  0  0  0  0  0  0  0  0  0  0  0
   19.8300   -5.3162   -3.9292 C   0  0  0  0  0  3  0  0  0  0  0  0
   18.3947   -5.8601   -3.9097 C   0  0  0  0  0  0  0  0  0  0  0  0
   18.3159   -7.2674   -4.3933 C   0  0  0  0  0  3  0  0  0  0  0  0
   19.3330   -7.5111   -5.2835 O   0  0  0  0  0  0  0  0  0  0  0  0
   16.9360   -7.4639   -5.0137 C   0  0  0  0  0  0  0  0  0  0  0  0
   16.9659   -7.2660   -6.4940 C   0  0  0  0  0  0  0  0  0  0  0  0
   16.4096   -6.0391   -6.8921 O   0  0  0  0  0  0  0  0  0  0  0  0
   16.9711   -5.7285   -8.1220 C   0  0  0  0  0  0  0  0  0  0  0  0
   16.7320   -4.4437   -8.5404 O   0  0  0  0  0  0  0  0  0  0  0  0
   15.8032   -3.7617   -7.7724 C   0  0  2  0  0  0  0  0  0  0  0  0
   15.1989   -2.8126   -8.6203 O   0  0  0  0  0  0  0  0  0  0  0  0
   16.4889   -3.0779   -6.6083 C   0  0  0  0  0  3  0  0  0  0  0  0
   16.3722   -1.7100   -6.7791 O   0  0  0  0  0  0  0  0  0  0  0  0
   16.8298   -0.9745   -5.7038 C   0  0  0  0  0  3  0  0  0  0  0  0
   18.3377   -1.1612   -5.5638 C   0  0  0  0  0  3  0  0  0  0  0  0
   20.9345   -1.9155   -4.0374 C   0  0  1  0  0  0  0  0  0  0  0  0
   20.8392   -2.1782   -5.4020 O   0  0  0  0  0  0  0  0  0  0  0  0
   19.5542   -1.3882   -3.6110 C   0  0  2  0  0  0  0  0  0  0  0  0
   18.5472   -1.8717   -4.3979 O   0  0  0  0  0  0  0  0  0  0  0  0
  1  2  1  0
  2  3  1  0
  3  4  1  0
  4  5  1  0
  5  6  1  1
  5  7  1  0
  7  8  1  6
  8  9  1  0
  9 10  1  0
 10 11  1  0
 11 12  1  0
 11 13  1  0
 13 14  1  0
 14 15  1  0
 15 16  1  0
 16 17  1  0
 17 18  1  0
 18 19  1  6
 18 20  1  0
 20 21  1  0
 21 22  1  0
 22 23  1  0
  7 24  1  0
 24 25  1  6
 24 26  1  0
 26 27  1  6
 26  1  1  0
 27 23  1  0
M  RAD  6   3   2   9   2  11   2  20   2  22   2  23   2
M  END
>  <docking_score>  (2) 
-4.9909999999999997

$$$$

     RDKit          3D

 27 28  0  0  0  0  0  0  0  0999 V2000
    4.2321    8.2113    4.0211 O   0  0  0  0  0  0  0  0  0  0  0  0
    4.4388    8.4456    2.7207 O   0  0  0  0  0  0  0  0  0  0  0  0
    3.9409    9.7199    2.4418 C   0  0  0  0  0  3  0  0  0  0  0  0
    4.9604   10.6622    2.2963 O   0  0  0  0  0  0  0  0  0  0  0  0
    4.8943   11.6369    3.2698 C   0  0  2  0  0  0  0  0  0  0  0  0
    5.0196   13.0304    2.7699 C   0  0  0  0  0  0  0  0  0  0  0  0
    5.8873   11.3271    4.4009 C   0  0  1  0  0  0  0  0  0  0  0  0
    5.1566   11.6282    5.6329 N   0  0  0  0  0  0  0  0  0  0  0  0
    5.6279   12.8146    6.2792 C   0  0  0  0  0  3  0  0  0  0  0  0
    4.5432   13.2024    7.2938 C   0  0  0  0  0  0  0  0  0  0  0  0
    5.0032   14.2593    8.2382 C   0  0  0  0  0  3  0  0  0  0  0  0
    6.3648   14.1787    8.3992 O   0  0  0  0  0  0  0  0  0  0  0  0
    4.2468   14.0658    9.5489 C   0  0  0  0  0  0  0  0  0  0  0  0
    5.0382   13.2597   10.5262 C   0  0  0  0  0  0  0  0  0  0  0  0
    4.5705   11.9411   10.6517 O   0  0  0  0  0  0  0  0  0  0  0  0
    5.6403   11.1810   11.1014 C   0  0  0  0  0  0  0  0  0  0  0  0
    5.4326    9.8261   11.0386 O   0  0  0  0  0  0  0  0  0  0  0  0
    4.1280    9.4662   10.7447 C   0  0  2  0  0  0  0  0  0  0  0  0
    3.9170    8.2030   11.3317 O   0  0  0  0  0  0  0  0  0  0  0  0
    3.9301    9.3981    9.2450 C   0  0  0  0  0  3  0  0  0  0  0  0
    3.6727    8.0832    8.9009 O   0  0  0  0  0  0  0  0  0  0  0  0
    3.3266    7.9130    7.5751 C   0  0  0  0  0  3  0  0  0  0  0  0
    4.5202    8.2574    6.6889 C   0  0  0  0  0  3  0  0  0  0  0  0
    5.9580    9.7878    4.4015 C   0  0  1  0  0  0  0  0  0  0  0  0
    6.6699    9.4365    5.5460 O   0  0  0  0  0  0  0  0  0  0  0  0
    4.4981    9.3872    4.6720 C   0  0  2  0  0  0  0  0  0  0  0  0
    4.1908    9.4104    6.0032 O   0  0  0  0  0  0  0  0  0  0  0  0
  1  2  1  0
  2  3  1  0
  3  4  1  0
  4  5  1  0
  5  6  1  6
  5  7  1  0
  7  8  1  1
  8  9  1  0
  9 10  1  0
 10 11  1  0
 11 12  1  0
 11 13  1  0
 13 14  1  0
 14 15  1  0
 15 16  1  0
 16 17  1  0
 17 18  1  0
 18 19  1  1
 18 20  1  0
 20 21  1  0
 21 22  1  0
 22 23  1  0
  7 24  1  0
 24 25  1  1
 24 26  1  0
 26 27  1  1
 26  1  1  0
 27 23  1  0
M  RAD  6   3   2   9   2  11   2  20   2  22   2  23   2
M  END
>  <docking_score>  (3) 
-4.7670000000000003

$$$$
