
     RDKit          3D

 28 31  0  0  0  0  0  0  0  0999 V2000
    4.5371   10.3675    8.5070 C   0  0  0  0  0  0  0  0  0  0  0  0
    3.6757   10.3691    7.2559 C   0  0  0  0  0  0  0  0  0  0  0  0
    2.2637   10.7125    7.7021 C   0  0  0  0  0  0  0  0  0  0  0  0
    3.6608    8.9679    6.6837 C   0  0  0  0  0  0  0  0  0  0  0  0
    2.3527    8.6218    6.0476 C   0  0  0  0  0  0  0  0  0  0  0  0
    2.5238    8.0908    4.6671 C   0  0  0  0  0  0  0  0  0  0  0  0
    3.9141    7.8613    4.2035 C   0  0  1  0  0  0  0  0  0  0  0  0
    4.1155    6.3177    4.1517 C   0  0  0  0  0  0  0  0  0  0  0  0
    4.2676    8.3385    2.8621 C   0  0  0  0  0  3  0  0  0  0  0  0
    5.3906    9.3009    2.6960 C   0  0  1  0  0  0  0  0  0  0  0  0
    4.7361   10.6260    2.1929 C   0  0  0  0  0  0  0  0  0  0  0  0
    3.8516   11.0620    3.3586 C   0  0  2  0  0  0  0  0  0  0  0  0
    2.4137   11.0855    2.8829 C   0  0  0  0  0  0  0  0  0  0  0  0
    4.2289   12.4692    3.7917 C   0  0  0  0  0  0  0  0  0  0  0  0
    4.7254   13.2766    2.6147 C   0  0  0  0  0  0  0  0  0  0  0  0
    6.1421   13.7097    2.7728 C   0  0  1  0  0  0  0  0  0  0  0  0
    6.2071   14.9573    3.6787 C   0  0  2  0  0  0  0  0  0  0  0  0
    7.4939   15.7326    3.7491 C   0  0  2  0  0  0  0  0  0  0  0  0
    8.5542   15.4771    2.7548 C   0  0  2  0  0  0  0  0  0  0  0  0
    8.4281   14.3215    1.8292 C   0  0  0  0  0  0  0  0  0  0  0  0
    9.5179   15.2793    3.9414 C   0  0  0  0  0  2  0  0  0  0  0  0
    8.3660   14.7551    4.7810 C   0  0  2  0  0  0  0  0  0  0  0  0
    7.6551   13.6016    4.2677 C   0  0  0  0  0  0  0  0  0  0  0  0
    6.4037   14.2016    4.9868 C   0  0  0  0  0  0  0  0  0  0  0  0
    6.7485   12.5756    3.8340 C   0  0  2  0  0  0  0  0  0  0  0  0
    7.2237   11.5720    3.0447 O   0  0  0  0  0  0  0  0  0  0  0  0
    7.3173   10.4261    3.8311 C   0  0  0  0  0  0  0  0  0  0  0  0
    5.9920    9.7394    4.0423 C   0  0  0  0  0  2  0  0  0  0  0  0
  1  2  1  0
  2  3  1  0
  2  4  1  0
  4  5  1  0
  5  6  1  0
  6  7  1  0
  7  8  1  6
  7  9  1  0
 10  9  1  1
 10 11  1  0
 11 12  1  0
 12 13  1  6
 12 14  1  0
 14 15  1  0
 16 15  1  1
 16 17  1  0
 17 18  1  0
 18 19  1  6
 19 20  1  1
 19 21  1  0
 22 21  1  6
 22 23  1  0
 23 24  2  0
 16 25  1  0
 25 26  1  6
 26 27  1  0
 27 28  1  0
 28 10  1  0
 17 24  1  1
 22 18  1  0
 25 23  1  0
M  RAD  3   9   2  21   3  28   3
M  END
>  <docking_score>  (1) 
-4.4829999999999997

$$$$

     RDKit          3D

 28 31  0  0  0  0  0  0  0  0999 V2000
    7.7195   13.2896    3.1271 C   0  0  0  0  0  0  0  0  0  0  0  0
    6.9027   12.2002    2.4539 C   0  0  0  0  0  0  0  0  0  0  0  0
    6.7299   12.6215    1.0036 C   0  0  0  0  0  0  0  0  0  0  0  0
    5.5340   12.1611    3.0989 C   0  0  0  0  0  0  0  0  0  0  0  0
    4.9241   10.7963    3.0685 C   0  0  0  0  0  0  0  0  0  0  0  0
    5.5225    9.8920    4.0888 C   0  0  0  0  0  0  0  0  0  0  0  0
    4.6631    8.7973    4.6024 C   0  0  1  0  0  0  0  0  0  0  0  0
    5.6230    7.6852    5.1199 C   0  0  0  0  0  0  0  0  0  0  0  0
    3.7844    9.1025    5.7368 C   0  0  0  0  0  3  0  0  0  0  0  0
    4.3505    9.1561    7.1121 C   0  0  1  0  0  0  0  0  0  0  0  0
    4.6562   10.6633    7.3811 C   0  0  0  0  0  0  0  0  0  0  0  0
    3.2797   11.3238    7.3640 C   0  0  2  0  0  0  0  0  0  0  0  0
    3.2503   12.3349    6.2365 C   0  0  0  0  0  0  0  0  0  0  0  0
    3.0497   12.0661    8.6702 C   0  0  0  0  0  0  0  0  0  0  0  0
    4.3540   12.5896    9.2255 C   0  0  0  0  0  0  0  0  0  0  0  0
    4.6926   11.9974   10.5500 C   0  0  1  0  0  0  0  0  0  0  0  0
    3.9071   12.7245   11.6615 C   0  0  2  0  0  0  0  0  0  0  0  0
    4.2979   12.4889   13.0946 C   0  0  2  0  0  0  0  0  0  0  0  0
    5.5781   11.8214   13.4007 C   0  0  2  0  0  0  0  0  0  0  0  0
    6.3653   11.2058   12.3009 C   0  0  0  0  0  0  0  0  0  0  0  0
    4.7734   10.8400   14.2754 C   0  0  0  0  0  2  0  0  0  0  0  0
    3.5794   11.0062   13.3517 C   0  0  2  0  0  0  0  0  0  0  0  0
    3.7835   10.6800   11.9547 C   0  0  0  0  0  0  0  0  0  0  0  0
    2.7118   11.7801   11.6641 C   0  0  0  0  0  0  0  0  0  0  0  0
    3.8522   10.5576   10.5254 C   0  0  2  0  0  0  0  0  0  0  0  0
    4.7166    9.6532    9.9859 O   0  0  0  0  0  0  0  0  0  0  0  0
    3.9641    8.5789    9.5172 C   0  0  0  0  0  0  0  0  0  0  0  0
    3.2984    8.8516    8.1924 C   0  0  0  0  0  2  0  0  0  0  0  0
  1  2  1  0
  2  3  1  0
  2  4  1  0
  4  5  1  0
  5  6  1  0
  6  7  1  0
  7  8  1  1
  7  9  1  0
 10  9  1  6
 10 11  1  0
 11 12  1  0
 12 13  1  6
 12 14  1  0
 14 15  1  0
 16 15  1  6
 16 17  1  0
 17 18  1  0
 18 19  1  6
 19 20  1  6
 19 21  1  0
 22 21  1  1
 22 23  1  0
 23 24  2  0
 16 25  1  0
 25 26  1  1
 26 27  1  0
 27 28  1  0
 28 10  1  0
 17 24  1  1
 22 18  1  0
 25 23  1  0
M  RAD  3   9   2  21   3  28   3
M  END
>  <docking_score>  (2) 
-3.7509999999999999

$$$$

     RDKit          3D

 28 31  0  0  0  0  0  0  0  0999 V2000
    6.4417   11.0430   11.5356 C   0  0  0  0  0  0  0  0  0  0  0  0
    5.6304   12.2587   11.9492 C   0  0  0  0  0  0  0  0  0  0  0  0
    6.6290   13.3652   12.2478 C   0  0  0  0  0  0  0  0  0  0  0  0
    4.8953   11.9296   13.2308 C   0  0  0  0  0  0  0  0  0  0  0  0
    3.4494   11.6261   13.0011 C   0  0  0  0  0  0  0  0  0  0  0  0
    3.2017   10.1669   12.8391 C   0  0  0  0  0  0  0  0  0  0  0  0
    3.1985    9.6361   11.4538 C   0  0  1  0  0  0  0  0  0  0  0  0
    2.4948    8.2478   11.5121 C   0  0  0  0  0  0  0  0  0  0  0  0
    2.4606   10.3968   10.4395 C   0  0  0  0  0  3  0  0  0  0  0  0
    2.6890   10.1128    8.9965 C   0  0  1  0  0  0  0  0  0  0  0  0
    2.5318   11.4853    8.2692 C   0  0  0  0  0  0  0  0  0  0  0  0
    3.6836   12.3237    8.8183 C   0  0  2  0  0  0  0  0  0  0  0  0
    3.1000   13.5214    9.5388 C   0  0  0  0  0  0  0  0  0  0  0  0
    4.5404   12.8338    7.6712 C   0  0  0  0  0  0  0  0  0  0  0  0
    3.7014   13.0564    6.4342 C   0  0  0  0  0  0  0  0  0  0  0  0
    4.1131   12.1858    5.2974 C   0  0  1  0  0  0  0  0  0  0  0  0
    5.3439   12.7954    4.5939 C   0  0  2  0  0  0  0  0  0  0  0  0
    5.7589   12.2440    3.2577 C   0  0  2  0  0  0  0  0  0  0  0  0
    4.8394   11.3583    2.5172 C   0  0  2  0  0  0  0  0  0  0  0  0
    3.6107   10.8547    3.1841 C   0  0  0  0  0  0  0  0  0  0  0  0
    6.0040   10.3536    2.4177 C   0  0  0  0  0  2  0  0  0  0  0  0
    6.5413   10.8549    3.7469 C   0  0  2  0  0  0  0  0  0  0  0  0
    5.6498   10.7700    4.8860 C   0  0  0  0  0  0  0  0  0  0  0  0
    6.3889   12.0441    5.4089 C   0  0  0  0  0  0  0  0  0  0  0  0
    4.8525   10.9081    6.0726 C   0  0  2  0  0  0  0  0  0  0  0  0
    3.8553   10.0084    6.3005 O   0  0  0  0  0  0  0  0  0  0  0  0
    4.2805    9.1567    7.3173 C   0  0  0  0  0  0  0  0  0  0  0  0
    4.1557    9.7625    8.6921 C   0  0  0  0  0  2  0  0  0  0  0  0
  1  2  1  0
  2  3  1  0
  2  4  1  0
  4  5  1  0
  5  6  1  0
  6  7  1  0
  7  8  1  1
  7  9  1  0
 10  9  1  1
 10 11  1  0
 11 12  1  0
 12 13  1  6
 12 14  1  0
 14 15  1  0
 16 15  1  1
 16 17  1  0
 17 18  1  0
 18 19  1  6
 19 20  1  1
 19 21  1  0
 22 21  1  6
 22 23  1  0
 23 24  2  0
 16 25  1  0
 25 26  1  6
 26 27  1  0
 27 28  1  0
 28 10  1  0
 17 24  1  1
 22 18  1  0
 25 23  1  0
M  RAD  3   9   2  21   3  28   3
M  END
>  <docking_score>  (3) 
-3.4430000000000001

$$$$
