
     RDKit          3D

 87 88  0  0  0  0  0  0  0  0999 V2000
   14.2040    3.4649    7.7083 O   0  0  0  0  0  0  0  0  0  0  0  0
   13.5815    2.3660    7.3214 O   0  0  0  0  0  0  0  0  0  0  0  0
   14.3047    1.8274    6.2617 C   0  0  0  0  0  3  0  0  0  0  0  0
   13.4737    1.6537    5.1662 O   0  0  0  0  0  0  0  0  0  0  0  0
   14.1465    1.0049    4.1561 C   0  0  2  0  0  0  0  0  0  0  0  0
   15.6183    1.2357    4.1348 C   0  0  0  0  0  0  0  0  0  0  0  0
   16.2857    0.0591    3.8106 O   0  0  0  0  0  0  0  0  0  0  0  0
   13.5033    1.3631    2.8342 C   0  0  1  0  0  0  0  0  0  0  0  0
   13.9404    0.5417    1.8128 O   0  0  0  0  0  0  0  0  0  0  0  0
   12.8767   -0.2574    1.3800 C   0  0  0  0  0  2  0  0  0  0  0  0
   12.0262    1.4927    2.9558 C   0  0  0  0  0  3  0  0  0  0  0  0
   11.5515    2.8668    2.5263 C   0  0  0  0  0  0  0  0  0  0  0  0
   10.9302    2.7694    1.2792 O   0  0  0  0  0  0  0  0  0  0  0  0
   10.4439    4.0214    0.9318 C   0  0  0  0  0  3  0  0  0  0  0  0
    9.0617    4.0322    0.8110 O   0  0  0  0  0  0  0  0  0  0  0  0
    8.7452    4.6155   -0.4040 C   0  0  0  0  0  3  0  0  0  0  0  0
    7.5206    5.4901   -0.3084 C   0  0  0  0  0  0  0  0  0  0  0  0
    7.7099    6.5279    0.6160 O   0  0  0  0  0  0  0  0  0  0  0  0
    6.5336    7.0715    0.8468 O   0  0  0  0  0  0  0  0  0  0  0  0
    6.2282    8.0604   -0.0969 C   0  0  0  0  0  3  0  0  0  0  0  0
    5.5780    9.2031    0.6666 C   0  0  2  0  0  0  0  0  0  0  0  0
    5.3484   10.2610   -0.2030 O   0  0  0  0  0  0  0  0  0  0  0  0
    6.5250    9.6316    1.7554 C   0  0  0  0  0  3  0  0  0  0  0  0
    5.7336   10.2046    2.9110 C   0  0  0  0  0  3  0  0  0  0  0  0
    5.2116   11.5368    2.4969 C   0  0  2  0  0  0  0  0  0  0  0  0
    6.1379   12.6697    2.8199 C   0  0  0  0  0  3  0  0  0  0  0  0
    7.0940   12.2426    3.7351 O   0  0  0  0  0  0  0  0  0  0  0  0
    6.5522   12.0222    5.0002 C   0  0  0  0  0  3  0  0  0  0  0  0
    6.2286   13.2206    5.6376 O   0  0  0  0  0  0  0  0  0  0  0  0
    5.0308   13.0166    6.3081 C   0  0  2  0  0  0  0  0  0  0  0  0
    3.8598   12.9345    5.3391 C   0  0  0  0  0  3  0  0  0  0  0  0
    4.0167   14.0218    4.2988 C   0  0  0  0  0  3  0  0  0  0  0  0
    2.9443   13.9101    3.2465 C   0  0  0  0  0  3  0  0  0  0  0  0
    3.2766   12.8779    2.3785 O   0  0  0  0  0  0  0  0  0  0  0  0
    3.8189   11.8020    3.0185 C   0  0  1  0  0  0  0  0  0  0  0  0
    3.0836   10.6211    2.8121 O   0  0  0  0  0  0  0  0  0  0  0  0
    2.3467   10.3319    3.9549 C   0  0  0  0  0  2  0  0  0  0  0  0
    4.7867   14.0171    7.4041 C   0  0  0  0  0  3  0  0  0  0  0  0
    5.5069   15.2953    7.0504 C   0  0  0  0  0  3  0  0  0  0  0  0
    5.9948   15.9346    8.1883 O   0  0  0  0  0  0  0  0  0  0  0  0
    6.1453   15.0595    9.2633 C   0  0  2  0  0  0  0  0  0  0  0  0
    4.9577   14.9648    9.9922 O   0  0  0  0  0  0  0  0  0  0  0  0
    7.2561   15.6045   10.1352 C   0  0  0  0  0  3  0  0  0  0  0  0
    6.9846   15.3480   11.5933 C   0  0  0  0  0  3  0  0  0  0  0  0
    7.8143   14.3185   12.0296 O   0  0  0  0  0  0  0  0  0  0  0  0
    7.9960   14.3536   13.3269 O   0  0  0  0  0  0  0  0  0  0  0  0
    7.5622   13.1650   13.8879 C   0  0  0  0  0  3  0  0  0  0  0  0
    8.5269   12.1588   13.7925 O   0  0  0  0  0  0  0  0  0  0  0  0
    9.7896   12.6441   14.0721 C   0  0  2  0  0  0  0  0  0  0  0  0
   10.5203   13.1621   12.8661 C   0  0  0  0  0  3  0  0  0  0  0  0
   10.0493   14.3764   12.4070 O   0  0  0  0  0  0  0  0  0  0  0  0
   10.7216   15.4694   12.9264 C   0  0  0  0  0  3  0  0  0  0  0  0
   12.0803   15.4638   12.6634 O   0  0  0  0  0  0  0  0  0  0  0  0
   12.4584   14.4993   11.7514 C   0  0  0  0  0  3  0  0  0  0  0  0
   12.6236   13.2535   12.3753 O   0  0  0  0  0  0  0  0  0  0  0  0
   13.3140   12.2068   11.1998 S   0  0  0  0  0  0  0  0  0  0  0  0
   12.0189   11.1999   10.4246 C   0  0  0  0  0  3  0  0  0  0  0  0
   12.5625   10.3236    9.4952 O   0  0  0  0  0  0  0  0  0  0  0  0
   12.4891    8.9993    9.9299 C   0  0  0  0  0  3  0  0  0  0  0  0
   11.7092    8.8846   11.0914 O   0  0  0  0  0  0  0  0  0  0  0  0
   10.4506    9.0115   10.6960 O   0  0  0  0  0  0  0  0  0  0  0  0
   10.4398    8.9902    9.3094 C   0  0  0  0  0  2  0  0  0  0  0  0
   10.6543   11.6769   14.8305 C   0  0  0  0  0  3  0  0  0  0  0  0
   12.0936   11.9245   14.4019 C   0  0  0  0  0  3  0  0  0  0  0  0
   12.9044   11.0017   15.0584 O   0  0  0  0  0  0  0  0  0  0  0  0
   12.7608    9.7524   14.4405 C   0  0  0  0  0  3  0  0  0  0  0  0
   13.9773    9.2722   13.9807 O   0  0  0  0  0  0  0  0  0  0  0  0
   13.9071    7.8761   13.9503 C   0  0  2  0  0  0  0  0  0  0  0  0
   14.2465    7.3315   15.3194 C   0  0  0  0  0  3  0  0  0  0  0  0
   13.7800    5.9069   15.4858 C   0  0  1  0  0  0  0  0  0  0  0  0
   13.3052    5.3486   14.3271 O   0  0  0  0  0  0  0  0  0  0  0  0
   14.8674    5.0928   16.1521 C   0  0  0  0  0  3  0  0  0  0  0  0
   14.9343    5.4673   17.6104 C   0  0  0  0  0  3  0  0  0  0  0  0
   14.8467    4.2118   18.4614 C   0  0  0  0  0  3  0  0  0  0  0  0
   14.0723    3.2389   17.8518 O   0  0  0  0  0  0  0  0  0  0  0  0
   14.8603    2.1614   17.4513 C   0  0  0  0  0  2  0  0  0  0  0  0
   14.6864    7.3386   12.9459 O   0  0  0  0  0  0  0  0  0  0  0  0
   16.0435    7.4631   13.2226 C   0  0  0  0  0  3  0  0  0  0  0  0
   16.6009    6.1908   13.8147 C   0  0  0  0  0  3  0  0  0  0  0  0
   15.5680    5.0869   13.7990 C   0  0  0  0  0  3  0  0  0  0  0  0
   14.9358    4.8653   12.1113 S   0  0  0  0  0  0  0  0  0  0  0  0
   16.3400    4.5046   11.0250 C   0  0  0  0  0  3  0  0  0  0  0  0
   15.8575    4.7211    9.2828 S   0  0  0  0  0  0  0  0  0  0  0  0
   15.1162    3.1783    8.7108 C   0  0  2  0  0  0  0  0  0  0  0  0
   16.1785    2.3486    8.1842 N   0  0  0  0  0  0  0  0  0  0  0  0
   16.1588    0.9477    8.4026 C   0  0  0  0  0  0  0  0  0  0  0  0
   15.8403    0.0803    7.4635 C   0  0  0  0  0  3  0  0  0  0  0  0
  1  2  1  0
  2  3  1  0
  3  4  1  0
  4  5  1  0
  5  6  1  6
  6  7  1  0
  5  8  1  0
  8  9  1  6
  9 10  1  0
  8 11  1  0
 11 12  1  0
 12 13  1  0
 13 14  1  0
 14 15  1  0
 15 16  1  0
 16 17  1  0
 17 18  1  0
 18 19  1  0
 19 20  1  0
 20 21  1  0
 21 22  1  6
 21 23  1  0
 23 24  1  0
 25 24  1  1
 25 26  1  0
 26 27  1  0
 27 28  1  0
 28 29  1  0
 29 30  1  0
 30 31  1  6
 31 32  1  0
 32 33  1  0
 33 34  1  0
 34 35  1  0
 35 36  1  6
 36 37  1  0
 30 38  1  0
 38 39  1  0
 39 40  1  0
 40 41  1  0
 41 42  1  1
 41 43  1  0
 43 44  1  0
 44 45  1  0
 45 46  1  0
 46 47  1  0
 47 48  1  0
 48 49  1  0
 49 50  1  6
 50 51  1  0
 51 52  1  0
 52 53  1  0
 53 54  1  0
 54 55  1  0
 55 56  1  0
 56 57  1  0
 57 58  1  0
 58 59  1  0
 59 60  1  0
 60 61  1  0
 61 62  1  0
 49 63  1  0
 63 64  1  0
 64 65  1  0
 65 66  1  0
 66 67  1  0
 67 68  1  0
 68 69  1  1
 69 70  1  0
 70 71  1  6
 70 72  1  0
 72 73  1  0
 73 74  1  0
 74 75  1  0
 75 76  1  0
 68 77  1  0
 77 78  1  0
 78 79  1  0
 79 80  1  0
 80 81  1  0
 81 82  1  0
 82 83  1  0
 83 84  1  0
 84 85  1  6
 85 86  1  0
 86 87  2  0
 84  1  1  0
 35 25  1  0
M  RAD  8   3   2  10   3  11   2  14   2  16   2  20   2  23   2  24   2
M  RAD  8  26   2  28   2  31   2  32   2  33   2  37   3  38   2  39   2
M  RAD  8  43   2  44   2  47   2  50   2  52   2  54   2  57   2  59   2
M  RAD  8  62   3  63   2  64   2  66   2  69   2  72   2  73   2  74   2
M  RAD  6  76   3  78   2  79   2  80   2  82   2  87   2
M  END
>  <docking_score>  (1) 
151.18700000000001

$$$$
