
     RDKit          3D

 14 13  0  0  0  0  0  0  0  0999 V2000
   16.0001   -1.3031   -1.7694 C   0  0  0  0  0  0  0  0  0  0  0  0
   16.6186   -2.4412   -2.2462 O   0  0  0  0  0  0  0  0  0  0  0  0
   17.7029   -2.2439   -3.0536 C   0  0  0  0  0  3  0  0  0  0  0  0
   18.0306   -3.5072   -3.6495 O   0  0  0  0  0  0  0  0  0  0  0  0
   16.9988   -4.3854   -3.2209 C   0  0  2  0  0  0  0  0  0  0  0  0
   17.9398   -5.6616   -2.8187 C   0  0  0  0  0  0  0  0  0  0  0  0
   16.2488   -5.0083   -4.4018 C   0  0  0  0  0  0  0  0  0  0  0  0
   14.9969   -4.3255   -4.8782 C   0  0  1  0  0  0  0  0  0  0  0  0
   15.0728   -3.2180   -5.7466 N   0  0  0  0  0  0  0  0  0  0  0  0
   14.5058   -2.0538   -5.0262 C   0  0  0  0  0  3  0  0  0  0  0  0
   14.6605   -0.7606   -5.7543 C   0  0  0  0  0  0  0  0  0  0  0  0
   13.8898    0.2880   -4.9505 C   0  0  0  0  0  2  0  0  0  0  0  0
   14.2278   -5.4323   -5.6677 C   0  0  0  0  0  0  0  0  0  0  0  0
   14.2917   -6.5633   -5.2457 O   0  0  0  0  0  0  0  0  0  0  0  0
  1  2  1  0
  2  3  1  0
  3  4  1  0
  4  5  1  0
  5  6  1  6
  5  7  1  0
  8  7  1  6
  8  9  1  0
  9 10  1  0
 10 11  1  0
 11 12  1  0
  8 13  1  0
 13 14  2  0
M  RAD  3   3   2  10   2  12   3
M  END
>  <docking_score>  (1) 
-3.2189999999999999

$$$$

     RDKit          3D

 14 13  0  0  0  0  0  0  0  0999 V2000
   13.5787    0.3137   -4.2851 C   0  0  0  0  0  0  0  0  0  0  0  0
   14.3804    0.1679   -5.3993 O   0  0  0  0  0  0  0  0  0  0  0  0
   14.5866   -1.1124   -5.8293 C   0  0  0  0  0  3  0  0  0  0  0  0
   15.9875   -1.2526   -6.1053 O   0  0  0  0  0  0  0  0  0  0  0  0
   16.2941   -2.5909   -5.7387 C   0  0  2  0  0  0  0  0  0  0  0  0
   14.7901   -3.0537   -5.2916 C   0  0  0  0  0  0  0  0  0  0  0  0
   16.9806   -2.6681   -4.3720 C   0  0  0  0  0  0  0  0  0  0  0  0
   16.1218   -2.9410   -3.1686 C   0  0  1  0  0  0  0  0  0  0  0  0
   16.4951   -3.9262   -2.2324 N   0  0  0  0  0  0  0  0  0  0  0  0
   16.6762   -5.1948   -2.9765 C   0  0  0  0  0  3  0  0  0  0  0  0
   18.0408   -5.7832   -2.8417 C   0  0  0  0  0  0  0  0  0  0  0  0
   18.3387   -6.5016   -4.1589 C   0  0  0  0  0  2  0  0  0  0  0  0
   16.1136   -1.5906   -2.3835 C   0  0  0  0  0  0  0  0  0  0  0  0
   17.0615   -1.3552   -1.6712 O   0  0  0  0  0  0  0  0  0  0  0  0
  1  2  1  0
  2  3  1  0
  3  4  1  0
  4  5  1  0
  5  6  1  1
  5  7  1  0
  8  7  1  6
  8  9  1  0
  9 10  1  0
 10 11  1  0
 11 12  1  0
  8 13  1  0
 13 14  2  0
M  RAD  3   3   2  10   2  12   3
M  END
>  <docking_score>  (2) 
-3.2010000000000001

$$$$

     RDKit          3D

 14 13  0  0  0  0  0  0  0  0999 V2000
   13.7502   -0.4925   -5.0526 C   0  0  0  0  0  0  0  0  0  0  0  0
   14.5847   -0.9990   -4.0767 O   0  0  0  0  0  0  0  0  0  0  0  0
   15.6468   -1.7372   -4.5165 C   0  0  0  0  0  3  0  0  0  0  0  0
   15.7414   -1.5509   -5.9359 O   0  0  0  0  0  0  0  0  0  0  0  0
   16.3020   -2.7632   -6.4212 C   0  0  2  0  0  0  0  0  0  0  0  0
   16.6615   -2.2567   -7.9346 C   0  0  0  0  0  0  0  0  0  0  0  0
   15.2247   -3.7949   -6.7675 C   0  0  0  0  0  0  0  0  0  0  0  0
   15.4818   -5.2298   -6.3998 C   0  0  1  0  0  0  0  0  0  0  0  0
   16.6002   -5.5777   -5.6159 N   0  0  0  0  0  0  0  0  0  0  0  0
   16.1705   -5.5483   -4.1980 C   0  0  0  0  0  3  0  0  0  0  0  0
   17.1931   -4.9833   -3.2698 C   0  0  0  0  0  0  0  0  0  0  0  0
   16.4615   -4.6391   -1.9712 C   0  0  0  0  0  2  0  0  0  0  0  0
   14.2305   -5.6460   -5.5626 C   0  0  0  0  0  0  0  0  0  0  0  0
   13.1515   -5.2549   -5.9424 O   0  0  0  0  0  0  0  0  0  0  0  0
  1  2  1  0
  2  3  1  0
  3  4  1  0
  4  5  1  0
  5  6  1  6
  5  7  1  0
  8  7  1  1
  8  9  1  0
  9 10  1  0
 10 11  1  0
 11 12  1  0
  8 13  1  0
 13 14  2  0
M  RAD  3   3   2  10   2  12   3
M  END
>  <docking_score>  (3) 
-3.133

$$$$
