
     RDKit          3D

 19 18  0  0  0  0  0  0  0  0999 V2000
   18.7600   -3.6778   -1.5422 O   0  0  0  0  0  1  0  0  0  0  0  0
   17.5521   -3.5239   -2.1853 C   0  0  1  0  0  0  0  0  0  0  0  0
   16.4829   -4.1014   -1.4983 O   0  0  0  0  0  0  0  0  0  0  0  0
   17.2818   -2.0714   -2.3839 C   0  0  0  0  0  0  0  0  0  0  0  0
   15.8947   -1.9256   -3.0040 C   0  0  0  0  0  0  0  0  0  0  0  0
   15.9811   -2.4450   -4.3828 C   0  0  0  0  0  0  0  0  0  0  0  0
   14.8718   -2.8405   -4.9808 C   0  0  0  0  0  0  0  0  0  0  0  0
   14.9412   -3.3495   -6.3262 C   0  0  0  0  0  0  0  0  0  0  0  0
   15.7576   -2.3312   -7.7062 Br  0  0  0  0  0  0  0  0  0  0  0  0
   14.4120   -4.5505   -6.5480 C   0  0  0  0  0  0  0  0  0  0  0  0
   14.4827   -5.0331   -7.8446 O   0  0  0  0  0  0  0  0  0  0  0  0
   13.2895   -5.3446   -8.5237 C   0  0  0  0  0  0  0  0  0  0  0  0
   13.7748   -5.3488   -5.4788 C   0  0  0  0  0  0  0  0  0  0  0  0
   14.5914   -6.5638   -5.1111 C   0  0  0  0  0  0  0  0  0  0  0  0
   15.8311   -6.2417   -4.3432 C   0  0  0  0  0  0  0  0  0  0  0  0
   17.0967   -6.5927   -5.0926 C   0  0  0  0  0  0  0  0  0  0  0  0
   17.9180   -5.3892   -5.4176 C   0  0  0  0  0  0  0  0  0  0  0  0
   18.5717   -5.5016   -6.7836 C   0  0  0  0  0  0  0  0  0  0  0  0
   19.6202   -6.3942   -6.7854 O   0  0  0  0  0  1  0  0  0  0  0  0
  2  1  1  1
  2  3  1  0
  2  4  1  0
  4  5  1  0
  5  6  1  0
  6  7  2  3
  7  8  1  0
  8  9  1  0
  8 10  2  3
 10 11  1  0
 11 12  1  0
 10 13  1  0
 13 14  1  0
 14 15  1  0
 15 16  1  0
 16 17  1  0
 17 18  1  0
 18 19  1  0
M  CHG  2   1  -1  19  -1
M  END
>  <docking_score>  (1) 
-3.8140000000000001

$$$$

     RDKit          3D

 19 18  0  0  0  0  0  0  0  0999 V2000
   13.2154   -0.2903   -4.1396 O   0  0  0  0  0  1  0  0  0  0  0  0
   13.9014   -0.4938   -5.3162 C   0  0  1  0  0  0  0  0  0  0  0  0
   14.6874    0.5965   -5.6932 O   0  0  0  0  0  0  0  0  0  0  0  0
   14.7668   -1.6998   -5.1792 C   0  0  0  0  0  0  0  0  0  0  0  0
   15.7005   -1.7554   -6.3854 C   0  0  0  0  0  0  0  0  0  0  0  0
   16.0571   -3.1729   -6.5907 C   0  0  0  0  0  0  0  0  0  0  0  0
   16.9046   -3.7402   -5.7513 C   0  0  0  0  0  0  0  0  0  0  0  0
   17.2616   -5.1227   -5.9395 C   0  0  0  0  0  0  0  0  0  0  0  0
   18.2878   -5.6618   -7.4442 Br  0  0  0  0  0  0  0  0  0  0  0  0
   16.8417   -5.9878   -5.0193 C   0  0  0  0  0  0  0  0  0  0  0  0
   17.1892   -7.3156   -5.2074 O   0  0  0  0  0  0  0  0  0  0  0  0
   18.3806   -7.7980   -4.6331 C   0  0  0  0  0  0  0  0  0  0  0  0
   16.0425   -5.5754   -3.8456 C   0  0  0  0  0  0  0  0  0  0  0  0
   16.9030   -5.3156   -2.6330 C   0  0  0  0  0  0  0  0  0  0  0  0
   16.8101   -3.9154   -2.1221 C   0  0  0  0  0  0  0  0  0  0  0  0
   18.1600   -3.2497   -1.9774 C   0  0  0  0  0  0  0  0  0  0  0  0
   18.1711   -1.8606   -2.5240 C   0  0  0  0  0  0  0  0  0  0  0  0
   19.4248   -1.5805   -3.3339 C   0  0  0  0  0  0  0  0  0  0  0  0
   19.7591   -0.2447   -3.3275 O   0  0  0  0  0  1  0  0  0  0  0  0
  2  1  1  1
  2  3  1  0
  2  4  1  0
  4  5  1  0
  5  6  1  0
  6  7  2  3
  7  8  1  0
  8  9  1  0
  8 10  2  3
 10 11  1  0
 11 12  1  0
 10 13  1  0
 13 14  1  0
 14 15  1  0
 15 16  1  0
 16 17  1  0
 17 18  1  0
 18 19  1  0
M  CHG  2   1  -1  19  -1
M  END
>  <docking_score>  (2) 
-3.3620000000000001

$$$$

     RDKit          3D

 19 18  0  0  0  0  0  0  0  0999 V2000
   20.2509   -6.9742   -4.1618 O   0  0  0  0  0  1  0  0  0  0  0  0
   19.8627   -5.9750   -5.0263 C   0  0  1  0  0  0  0  0  0  0  0  0
   20.8362   -5.6557   -5.9744 O   0  0  0  0  0  0  0  0  0  0  0  0
   18.6122   -6.3871   -5.7251 C   0  0  0  0  0  0  0  0  0  0  0  0
   17.6774   -7.0177   -4.6964 C   0  0  0  0  0  0  0  0  0  0  0  0
   16.4547   -6.1918   -4.6600 C   0  0  0  0  0  0  0  0  0  0  0  0
   16.4133   -5.0901   -5.3873 C   0  0  0  0  0  0  0  0  0  0  0  0
   15.2266   -4.2745   -5.3616 C   0  0  0  0  0  0  0  0  0  0  0  0
   13.5888   -4.9248   -6.0706 Br  0  0  0  0  0  0  0  0  0  0  0  0
   15.3361   -3.0618   -4.8240 C   0  0  0  0  0  0  0  0  0  0  0  0
   14.1903   -2.2835   -4.8029 O   0  0  0  0  0  0  0  0  0  0  0  0
   14.2450   -0.9732   -5.3148 C   0  0  0  0  0  0  0  0  0  0  0  0
   16.6077   -2.5490   -4.2703 C   0  0  0  0  0  0  0  0  0  0  0  0
   16.5376   -2.3449   -2.7764 C   0  0  0  0  0  0  0  0  0  0  0  0
   16.8823   -3.5660   -1.9888 C   0  0  0  0  0  0  0  0  0  0  0  0
   18.2609   -4.1012   -2.3039 C   0  0  0  0  0  0  0  0  0  0  0  0
   19.3291   -3.4252   -1.5098 C   0  0  0  0  0  0  0  0  0  0  0  0
   20.4869   -2.9766   -2.3840 C   0  0  0  0  0  0  0  0  0  0  0  0
   20.0748   -2.6223   -3.6493 O   0  0  0  0  0  1  0  0  0  0  0  0
  2  1  1  1
  2  3  1  0
  2  4  1  0
  4  5  1  0
  5  6  1  0
  6  7  2  3
  7  8  1  0
  8  9  1  0
  8 10  2  3
 10 11  1  0
 11 12  1  0
 10 13  1  0
 13 14  1  0
 14 15  1  0
 15 16  1  0
 16 17  1  0
 17 18  1  0
 18 19  1  0
M  CHG  2   1  -1  19  -1
M  END
>  <docking_score>  (3) 
-3.2959999999999998

$$$$
