
     RDKit          3D

 29 32  0  0  0  0  0  0  0  0999 V2000
   13.2661   -4.0918   -5.5359 C   0  0  0  0  0  0  0  0  0  0  0  0
   14.6128   -3.4894   -5.2073 C   0  0  0  0  0  2  0  0  0  0  0  0
   15.6133   -4.0133   -6.2283 C   0  0  0  0  0  0  0  0  0  0  0  0
   16.6989   -4.7134   -5.4802 C   0  0  2  0  0  0  0  0  0  0  0  0
   18.0745   -4.1420   -5.7439 C   0  0  0  0  0  3  0  0  0  0  0  0
   18.4389   -3.2871   -4.5774 C   0  0  0  0  0  0  0  0  0  0  0  0
   17.4973   -2.4636   -3.9935 C   0  0  0  0  0  0  0  0  0  0  0  0
   17.8129   -1.6647   -2.9138 C   0  0  0  0  0  0  0  0  0  0  0  0
   19.0842   -1.6523   -2.3681 C   0  0  0  0  0  0  0  0  0  0  0  0
   19.3889   -0.8402   -1.2774 O   0  0  0  0  0  0  0  0  0  0  0  0
   20.0155   -2.4802   -2.9614 C   0  0  0  0  0  0  0  0  0  0  0  0
   19.7108   -3.2835   -4.0419 C   0  0  0  0  0  0  0  0  0  0  0  0
   20.7592   -4.1734   -4.6598 C   0  0  0  0  0  0  0  0  0  0  0  0
   21.3645   -4.9750   -3.5278 C   0  0  0  0  0  3  0  0  0  0  0  0
   21.3803   -6.4570   -3.8153 C   0  0  0  0  0  2  0  0  0  0  0  0
   20.0295   -7.0810   -3.5838 C   0  0  0  0  0  0  0  0  0  0  0  0
   20.0727   -8.2996   -5.2488 S   0  0  2  0  0  0  0  0  0  0  0  0
   20.2066   -7.2367   -6.6122 C   0  0  0  0  0  0  0  0  0  0  0  0
   18.9285   -6.4889   -6.7385 C   0  0  0  0  0  0  0  0  0  0  0  0
   18.1497   -6.6661   -5.4586 C   0  0  1  0  0  0  0  0  0  0  0  0
   16.7339   -6.2018   -5.7321 C   0  0  2  0  0  0  0  0  0  0  0  0
   16.4448   -6.5193   -7.0528 O   0  0  0  0  0  0  0  0  0  0  0  0
   15.3534   -5.9196   -7.4782 O   0  0  0  0  0  0  0  0  0  0  0  0
   14.4031   -6.0565   -6.4560 C   0  0  0  0  0  0  0  0  0  0  0  0
   13.3312   -5.0040   -6.7491 C   0  0  0  0  0  3  0  0  0  0  0  0
   18.0551   -8.1795   -5.2329 C   0  0  0  0  0  3  0  0  0  0  0  0
   17.7841   -8.7886   -6.5927 C   0  0  0  0  0  0  0  0  0  0  0  0
   17.2296  -10.1764   -6.5144 C   0  0  0  0  0  3  0  0  0  0  0  0
   16.4537  -10.2993   -5.3521 O   0  0  0  0  0  0  0  0  0  0  0  0
  1  2  1  0
  2  3  1  0
  4  3  1  6
  4  5  1  0
  5  6  1  0
  6  7  2  0
  7  8  1  0
  8  9  2  0
  9 10  1  0
  9 11  1  0
 11 12  2  0
 12 13  1  0
 13 14  1  0
 14 15  1  0
 15 16  1  0
 17 16  1  1
 17 18  1  0
 18 19  1  0
 20 19  1  6
 20 21  1  0
 21 22  1  6
 22 23  1  0
 23 24  1  0
 24 25  1  0
 17 26  1  0
 26 27  1  0
 27 28  1  0
 28 29  1  0
 25  1  1  0
 21  4  1  0
 12  6  1  0
 26 20  1  0
M  RAD  7   2   3   5   2  14   2  15   3  25   2  26   2  28   2
M  END
>  <docking_score>  (1) 
-5.2400000000000002

$$$$

     RDKit          3D

 29 32  0  0  0  0  0  0  0  0999 V2000
   13.8253   -2.2480   -5.7847 C   0  0  0  0  0  0  0  0  0  0  0  0
   14.4380   -3.5906   -5.4585 C   0  0  0  0  0  2  0  0  0  0  0  0
   15.0912   -3.4780   -4.0879 C   0  0  0  0  0  0  0  0  0  0  0  0
   16.5369   -3.8147   -4.2466 C   0  0  2  0  0  0  0  0  0  0  0  0
   16.9818   -4.9731   -3.3814 C   0  0  0  0  0  3  0  0  0  0  0  0
   17.0684   -6.1800   -4.2534 C   0  0  0  0  0  0  0  0  0  0  0  0
   16.1035   -6.4209   -5.2108 C   0  0  0  0  0  0  0  0  0  0  0  0
   16.1642   -7.5309   -6.0279 C   0  0  0  0  0  0  0  0  0  0  0  0
   17.1922   -8.4512   -5.9257 C   0  0  0  0  0  0  0  0  0  0  0  0
   17.2407   -9.5680   -6.7577 O   0  0  0  0  0  0  0  0  0  0  0  0
   18.1498   -8.1982   -4.9645 C   0  0  0  0  0  0  0  0  0  0  0  0
   18.0991   -7.0910   -4.1417 C   0  0  0  0  0  0  0  0  0  0  0  0
   19.1668   -6.8527   -3.1044 C   0  0  0  0  0  0  0  0  0  0  0  0
   20.4945   -6.9463   -3.8246 C   0  0  0  0  0  3  0  0  0  0  0  0
   21.3824   -5.7558   -3.5532 C   0  0  0  0  0  2  0  0  0  0  0  0
   20.9773   -4.5628   -4.3781 C   0  0  0  0  0  0  0  0  0  0  0  0
   21.2272   -3.1724   -2.8736 S   0  0  2  0  0  0  0  0  0  0  0  0
   20.1373   -3.6401   -1.6086 C   0  0  0  0  0  0  0  0  0  0  0  0
   18.7501   -3.4129   -2.0908 C   0  0  0  0  0  0  0  0  0  0  0  0
   18.7975   -3.2066   -3.5846 C   0  0  1  0  0  0  0  0  0  0  0  0
   17.4542   -2.6414   -3.9979 C   0  0  2  0  0  0  0  0  0  0  0  0
   17.0090   -1.8363   -2.9576 O   0  0  0  0  0  0  0  0  0  0  0  0
   15.7388   -1.5176   -3.0874 O   0  0  0  0  0  0  0  0  0  0  0  0
   15.5554   -1.1635   -4.4319 C   0  0  0  0  0  0  0  0  0  0  0  0
   14.0457   -1.2363   -4.6728 C   0  0  0  0  0  3  0  0  0  0  0  0
   19.8123   -2.0819   -3.8193 C   0  0  0  0  0  3  0  0  0  0  0  0
   19.5580   -1.0565   -2.7342 C   0  0  0  0  0  0  0  0  0  0  0  0
   20.2388    0.2513   -2.9910 C   0  0  0  0  0  3  0  0  0  0  0  0
   20.9818    0.6159   -1.8583 O   0  0  0  0  0  0  0  0  0  0  0  0
  1  2  1  0
  2  3  1  0
  4  3  1  1
  4  5  1  0
  5  6  1  0
  6  7  2  0
  7  8  1  0
  8  9  2  0
  9 10  1  0
  9 11  1  0
 11 12  2  0
 12 13  1  0
 13 14  1  0
 14 15  1  0
 15 16  1  0
 17 16  1  6
 17 18  1  0
 18 19  1  0
 20 19  1  1
 20 21  1  0
 21 22  1  1
 22 23  1  0
 23 24  1  0
 24 25  1  0
 17 26  1  0
 26 27  1  0
 27 28  1  0
 28 29  1  0
 25  1  1  0
 21  4  1  0
 12  6  1  0
 26 20  1  0
M  RAD  7   2   3   5   2  14   2  15   3  25   2  26   2  28   2
M  END
>  <docking_score>  (2) 
-5.157

$$$$

     RDKit          3D

 29 32  0  0  0  0  0  0  0  0999 V2000
   20.3470   -2.6494   -0.9481 C   0  0  0  0  0  0  0  0  0  0  0  0
   20.6588   -3.4837   -2.1692 C   0  0  0  0  0  2  0  0  0  0  0  0
   20.3708   -2.6299   -3.3963 C   0  0  0  0  0  0  0  0  0  0  0  0
   19.3529   -3.3481   -4.2187 C   0  0  2  0  0  0  0  0  0  0  0  0
   19.8178   -3.6406   -5.6282 C   0  0  0  0  0  3  0  0  0  0  0  0
   20.2169   -5.0766   -5.6826 C   0  0  0  0  0  0  0  0  0  0  0  0
   20.9176   -5.6470   -4.6389 C   0  0  0  0  0  0  0  0  0  0  0  0
   21.2967   -6.9733   -4.6685 C   0  0  0  0  0  0  0  0  0  0  0  0
   20.9928   -7.7904   -5.7428 C   0  0  0  0  0  0  0  0  0  0  0  0
   21.3820   -9.1283   -5.7593 O   0  0  0  0  0  0  0  0  0  0  0  0
   20.2921   -7.2073   -6.7792 C   0  0  0  0  0  0  0  0  0  0  0  0
   19.9078   -5.8816   -6.7601 C   0  0  0  0  0  0  0  0  0  0  0  0
   19.1431   -5.2848   -7.9141 C   0  0  0  0  0  0  0  0  0  0  0  0
   17.9639   -6.1989   -8.1673 C   0  0  0  0  0  3  0  0  0  0  0  0
   16.6548   -5.4488   -8.2231 C   0  0  0  0  0  2  0  0  0  0  0  0
   16.1477   -5.1158   -6.8448 C   0  0  0  0  0  0  0  0  0  0  0  0
   15.5153   -3.2069   -7.3091 S   0  0  2  0  0  0  0  0  0  0  0  0
   16.9294   -2.3532   -7.8366 C   0  0  0  0  0  0  0  0  0  0  0  0
   17.8194   -2.1685   -6.6608 C   0  0  0  0  0  0  0  0  0  0  0  0
   17.3400   -3.0801   -5.5584 C   0  0  1  0  0  0  0  0  0  0  0  0
   18.0245   -2.6331   -4.2831 C   0  0  2  0  0  0  0  0  0  0  0  0
   18.1718   -1.2542   -4.3569 O   0  0  0  0  0  0  0  0  0  0  0  0
   18.9946   -0.7947   -3.4384 O   0  0  0  0  0  0  0  0  0  0  0  0
   18.6535   -1.4425   -2.2423 C   0  0  0  0  0  0  0  0  0  0  0  0
   19.8596   -1.2587   -1.3180 C   0  0  0  0  0  3  0  0  0  0  0  0
   15.8532   -2.7590   -5.3673 C   0  0  0  0  0  3  0  0  0  0  0  0
   15.7358   -1.2520   -5.4617 C   0  0  0  0  0  0  0  0  0  0  0  0
   14.5826   -0.7030   -4.6816 C   0  0  0  0  0  3  0  0  0  0  0  0
   14.1465    0.4892   -5.2786 O   0  0  0  0  0  0  0  0  0  0  0  0
  1  2  1  0
  2  3  1  0
  4  3  1  6
  4  5  1  0
  5  6  1  0
  6  7  2  0
  7  8  1  0
  8  9  2  0
  9 10  1  0
  9 11  1  0
 11 12  2  0
 12 13  1  0
 13 14  1  0
 14 15  1  0
 15 16  1  0
 17 16  1  1
 17 18  1  0
 18 19  1  0
 20 19  1  6
 20 21  1  0
 21 22  1  6
 22 23  1  0
 23 24  1  0
 24 25  1  0
 17 26  1  0
 26 27  1  0
 27 28  1  0
 28 29  1  0
 25  1  1  0
 21  4  1  0
 12  6  1  0
 26 20  1  0
M  RAD  7   2   3   5   2  14   2  15   3  25   2  26   2  28   2
M  END
>  <docking_score>  (3) 
-4.891

$$$$
