
     RDKit          3D

 31 31  0  0  0  0  0  0  0  0999 V2000
    4.5977   10.5941    5.7382 C   0  0  0  0  0  0  0  0  0  0  0  0
    3.3668   10.2650    6.5554 C   0  0  1  0  0  0  0  0  0  0  0  0
    2.6629    9.0203    6.0373 C   0  0  0  0  0  0  0  0  0  0  0  0
    3.8618    9.9396    7.9650 C   0  0  0  0  0  0  0  0  0  0  0  0
    3.4861   11.0487    8.9257 C   0  0  0  0  0  0  0  0  0  0  0  0
    4.7350   11.6034    9.6178 C   0  0  0  0  0  0  0  0  0  0  0  0
    4.6118   13.1123    9.5626 C   0  0  1  0  0  0  0  0  0  0  0  0
    4.9531   13.7067   10.9296 C   0  0  0  0  0  0  0  0  0  0  0  0
    5.5842   13.6397    8.5031 C   0  0  0  0  0  3  0  0  0  0  0  0
    6.1073   15.0064    8.9222 C   0  0  0  0  0  0  0  0  0  0  0  0
    7.4893   15.1645    8.2989 C   0  0  0  0  0  0  0  0  0  0  0  0
    7.4485   15.9912    7.0526 C   0  0  2  0  0  0  0  0  0  0  0  0
    6.2142   15.8164    6.3102 N   0  0  0  0  0  0  0  0  0  0  0  0
    8.6247   15.6502    6.1634 C   0  0  0  0  0  0  0  0  0  0  0  0
    8.2364   15.7187    4.6982 C   0  0  1  0  0  0  0  0  0  0  0  0
    9.5052   15.8687    3.8764 C   0  0  0  0  0  0  0  0  0  0  0  0
    7.5323   14.4528    4.2518 C   0  0  0  0  0  0  0  0  0  0  0  0
    7.6612   14.3760    2.7463 C   0  0  0  0  0  0  0  0  0  0  0  0
    6.9908   13.1128    2.2124 C   0  0  1  0  0  0  0  0  0  0  0  0
    5.6131   13.2579    2.2272 O   0  0  0  0  0  0  0  0  0  0  0  0
    7.4339   12.9744    0.7621 C   0  0  0  0  0  0  0  0  0  0  0  0
    7.4647   11.8947    2.9494 C   0  0  1  0  0  0  0  0  0  0  0  0
    8.0493   12.1700    4.1560 F   0  0  0  0  0  0  0  0  0  0  0  0
    6.4234   10.8280    2.9977 C   0  0  0  0  0  0  0  0  0  0  0  0
    5.0729   11.3110    3.4508 C   0  0  0  0  0  2  0  0  0  0  0  0
    4.4197   10.2324    4.2821 C   0  0  2  0  0  0  0  0  0  0  0  0
    2.6517   10.1990    3.8894 S   0  0  0  0  0  0  0  0  0  0  0  0
    5.0992    8.9360    4.0184 C   0  0  0  0  0  0  0  0  0  0  0  0
    4.1878    7.8395    3.6670 C   0  0  0  0  0  0  0  0  0  0  0  0
    4.0037    6.7798    4.5905 N   0  0  0  0  0  0  0  0  0  0  0  0
    3.5612    7.7961    2.5828 O   0  0  0  0  0  0  0  0  0  0  0  0
  1  2  1  0
  2  3  1  6
  2  4  1  0
  4  5  1  0
  5  6  1  0
  6  7  1  0
  7  8  1  1
  7  9  1  0
  9 10  1  0
 10 11  1  0
 11 12  1  0
 12 13  1  6
 12 14  1  0
 14 15  1  0
 15 16  1  6
 15 17  1  0
 17 18  1  0
 18 19  1  0
 19 20  1  0
 19 21  1  6
 19 22  1  0
 22 23  1  1
 22 24  1  0
 24 25  1  0
 25 26  1  0
 26 27  1  6
 26 28  1  0
 28 29  1  0
 29 30  1  0
 29 31  2  0
 26  1  1  0
M  RAD  2   9   2  25   3
M  END
>  <docking_score>  (1) 
-5.0759999999999996

$$$$

     RDKit          3D

 31 31  0  0  0  0  0  0  0  0999 V2000
    4.5402    9.8359    3.7771 C   0  0  0  0  0  0  0  0  0  0  0  0
    5.5178    9.3681    2.7204 C   0  0  1  0  0  0  0  0  0  0  0  0
    5.2224    7.9459    2.2698 C   0  0  0  0  0  0  0  0  0  0  0  0
    5.3016   10.2715    1.5058 C   0  0  0  0  0  0  0  0  0  0  0  0
    6.4728   11.2168    1.3358 C   0  0  0  0  0  0  0  0  0  0  0  0
    5.9918   12.6712    1.3393 C   0  0  0  0  0  0  0  0  0  0  0  0
    6.9385   13.4254    2.2503 C   0  0  1  0  0  0  0  0  0  0  0  0
    7.3584   14.7363    1.5842 C   0  0  0  0  0  0  0  0  0  0  0  0
    6.2148   13.7148    3.5690 C   0  0  0  0  0  3  0  0  0  0  0  0
    6.6960   15.0424    4.1373 C   0  0  0  0  0  0  0  0  0  0  0  0
    5.5516   15.6124    4.9674 C   0  0  0  0  0  0  0  0  0  0  0  0
    5.7421   15.3589    6.4295 C   0  0  2  0  0  0  0  0  0  0  0  0
    6.4167   14.1014    6.6920 N   0  0  0  0  0  0  0  0  0  0  0  0
    4.4050   15.3717    7.1383 C   0  0  0  0  0  0  0  0  0  0  0  0
    4.3767   14.3550    8.2643 C   0  0  1  0  0  0  0  0  0  0  0  0
    3.2658   14.7410    9.2258 C   0  0  0  0  0  0  0  0  0  0  0  0
    4.0876   12.9608    7.7446 C   0  0  0  0  0  0  0  0  0  0  0  0
    3.5627   12.1493    8.9086 C   0  0  0  0  0  0  0  0  0  0  0  0
    3.2266   10.7277    8.4655 C   0  0  1  0  0  0  0  0  0  0  0  0
    4.3876    9.9913    8.2945 O   0  0  0  0  0  0  0  0  0  0  0  0
    2.4354   10.1006    9.6056 C   0  0  0  0  0  0  0  0  0  0  0  0
    2.3455   10.7323    7.2510 C   0  0  1  0  0  0  0  0  0  0  0  0
    2.3523   11.9175    6.5665 F   0  0  0  0  0  0  0  0  0  0  0  0
    2.5583    9.5268    6.3991 C   0  0  0  0  0  0  0  0  0  0  0  0
    4.0024    9.2452    6.0867 C   0  0  0  0  0  2  0  0  0  0  0  0
    4.1038    8.7055    4.6797 C   0  0  2  0  0  0  0  0  0  0  0  0
    5.3637    7.4045    4.6552 S   0  0  0  0  0  0  0  0  0  0  0  0
    2.7645    8.2273    4.2441 C   0  0  0  0  0  0  0  0  0  0  0  0
    2.6283    6.7654    4.2138 C   0  0  0  0  0  0  0  0  0  0  0  0
    2.9073    6.0770    3.0064 N   0  0  0  0  0  0  0  0  0  0  0  0
    2.2749    6.0938    5.2107 O   0  0  0  0  0  0  0  0  0  0  0  0
  1  2  1  0
  2  3  1  6
  2  4  1  0
  4  5  1  0
  5  6  1  0
  6  7  1  0
  7  8  1  6
  7  9  1  0
  9 10  1  0
 10 11  1  0
 11 12  1  0
 12 13  1  6
 12 14  1  0
 14 15  1  0
 15 16  1  1
 15 17  1  0
 17 18  1  0
 18 19  1  0
 19 20  1  0
 19 21  1  1
 19 22  1  0
 22 23  1  6
 22 24  1  0
 24 25  1  0
 25 26  1  0
 26 27  1  1
 26 28  1  0
 28 29  1  0
 29 30  1  0
 29 31  2  0
 26  1  1  0
M  RAD  2   9   2  25   3
M  END
>  <docking_score>  (2) 
-3.9969999999999999

$$$$

     RDKit          3D

 31 31  0  0  0  0  0  0  0  0999 V2000
    4.6129   10.3632    5.8278 C   0  0  0  0  0  0  0  0  0  0  0  0
    5.5991   10.5377    4.6930 C   0  0  1  0  0  0  0  0  0  0  0  0
    5.4347    9.4595    3.6330 C   0  0  0  0  0  0  0  0  0  0  0  0
    5.2551   11.8702    4.0264 C   0  0  0  0  0  0  0  0  0  0  0  0
    6.3191   12.9038    4.3324 C   0  0  0  0  0  0  0  0  0  0  0  0
    5.6943   14.1351    4.9958 C   0  0  0  0  0  0  0  0  0  0  0  0
    6.5882   14.4802    6.1692 C   0  0  1  0  0  0  0  0  0  0  0  0
    6.8528   15.9862    6.1890 C   0  0  0  0  0  0  0  0  0  0  0  0
    5.8806   14.0544    7.4593 C   0  0  0  0  0  3  0  0  0  0  0  0
    6.2431   15.0143    8.5837 C   0  0  0  0  0  0  0  0  0  0  0  0
    5.0736   15.0168    9.5614 C   0  0  0  0  0  0  0  0  0  0  0  0
    5.3343   14.1412   10.7461 C   0  0  2  0  0  0  0  0  0  0  0  0
    6.1401   12.9815   10.4131 N   0  0  0  0  0  0  0  0  0  0  0  0
    4.0256   13.6880   11.3562 C   0  0  0  0  0  0  0  0  0  0  0  0
    4.1352   12.2709   11.8873 C   0  0  1  0  0  0  0  0  0  0  0  0
    3.0217   12.0541   12.8976 C   0  0  0  0  0  0  0  0  0  0  0  0
    3.9720   11.2498   10.7790 C   0  0  0  0  0  0  0  0  0  0  0  0
    3.5682    9.9446   11.4290 C   0  0  0  0  0  0  0  0  0  0  0  0
    3.3634    8.8592   10.3753 C   0  0  1  0  0  0  0  0  0  0  0  0
    4.5868    8.4089    9.9064 O   0  0  0  0  0  0  0  0  0  0  0  0
    2.6755    7.7001   11.0839 C   0  0  0  0  0  0  0  0  0  0  0  0
    2.4488    9.3299    9.2829 C   0  0  1  0  0  0  0  0  0  0  0  0
    2.3146   10.6905    9.2207 F   0  0  0  0  0  0  0  0  0  0  0  0
    2.7553    8.6800    7.9759 C   0  0  0  0  0  0  0  0  0  0  0  0
    4.2099    8.7252    7.5961 C   0  0  0  0  0  2  0  0  0  0  0  0
    4.3211    8.9061    6.1007 C   0  0  2  0  0  0  0  0  0  0  0  0
    5.7044    7.9006    5.5039 S   0  0  0  0  0  0  0  0  0  0  0  0
    3.0239    8.5453    5.4690 C   0  0  0  0  0  0  0  0  0  0  0  0
    3.1017    7.4093    4.5416 C   0  0  0  0  0  0  0  0  0  0  0  0
    2.4573    6.1957    4.8903 N   0  0  0  0  0  0  0  0  0  0  0  0
    3.7145    7.4624    3.4500 O   0  0  0  0  0  0  0  0  0  0  0  0
  1  2  1  0
  2  3  1  6
  2  4  1  0
  4  5  1  0
  5  6  1  0
  6  7  1  0
  7  8  1  1
  7  9  1  0
  9 10  1  0
 10 11  1  0
 11 12  1  0
 12 13  1  6
 12 14  1  0
 14 15  1  0
 15 16  1  1
 15 17  1  0
 17 18  1  0
 18 19  1  0
 19 20  1  0
 19 21  1  1
 19 22  1  0
 22 23  1  6
 22 24  1  0
 24 25  1  0
 25 26  1  0
 26 27  1  6
 26 28  1  0
 28 29  1  0
 29 30  1  0
 29 31  2  0
 26  1  1  0
M  RAD  2   9   2  25   3
M  END
>  <docking_score>  (3) 
-3.6800000000000002

$$$$
