
     RDKit          3D

 15 16  0  0  0  0  0  0  0  0999 V2000
   16.5276   -1.5933   -1.8834 C   0  0  0  0  0  0  0  0  0  0  0  0
   17.1679   -2.7611   -2.6200 C   0  0  1  0  0  0  0  0  0  0  0  0
   16.5030   -4.0373   -2.1221 C   0  0  0  0  0  0  0  0  0  0  0  0
   16.8299   -5.2382   -2.9433 C   0  0  2  0  0  0  0  0  0  0  0  0
   18.0519   -5.7292   -2.5447 O   0  0  0  0  0  0  0  0  0  0  0  0
   16.6939   -5.0286   -4.4214 C   0  0  2  0  0  0  0  0  0  0  0  0
   17.0950   -6.1316   -5.1280 O   0  0  0  0  0  0  0  0  0  0  0  0
   17.4507   -3.7736   -4.8025 C   0  0  1  0  0  0  0  0  0  0  0  0
   17.5170   -3.5731   -6.1669 O   0  0  0  0  0  0  0  0  0  0  0  0
   16.7413   -2.6288   -4.0832 C   0  0  1  0  0  0  0  0  0  0  0  0
   15.3212   -2.9820   -4.0830 N   0  0  0  0  0  0  0  0  0  0  0  0
   14.5699   -2.2397   -5.0624 C   0  0  0  0  0  3  0  0  0  0  0  0
   14.5340   -0.8048   -4.5461 C   0  0  2  0  0  0  0  0  0  0  0  0
   13.5031    0.0675   -4.4773 C   0  0  0  0  0  0  0  0  0  0  0  0
   14.2806    0.0610   -5.7204 O   0  0  0  0  0  0  0  0  0  0  0  0
  2  1  1  1
  2  3  1  0
  3  4  1  0
  4  5  1  6
  4  6  1  0
  6  7  1  6
  6  8  1  0
  8  9  1  6
  8 10  1  0
 10 11  1  1
 11 12  1  0
 13 12  1  6
 13 14  1  0
 13 15  1  0
 10  2  1  0
 15 14  1  0
M  RAD  1  12   2
M  END
>  <docking_score>  (1) 
-4.476

$$$$

     RDKit          3D

 15 16  0  0  0  0  0  0  0  0999 V2000
   18.2542   -1.0693   -5.2645 C   0  0  0  0  0  0  0  0  0  0  0  0
   18.1614   -2.3016   -4.3762 C   0  0  1  0  0  0  0  0  0  0  0  0
   17.8549   -1.8259   -2.9625 C   0  0  0  0  0  0  0  0  0  0  0  0
   17.4659   -2.9268   -2.0351 C   0  0  2  0  0  0  0  0  0  0  0  0
   18.6068   -3.5410   -1.5721 O   0  0  0  0  0  0  0  0  0  0  0  0
   16.4347   -3.8631   -2.5895 C   0  0  2  0  0  0  0  0  0  0  0  0
   16.1849   -4.9042   -1.7350 O   0  0  0  0  0  0  0  0  0  0  0  0
   16.8841   -4.3180   -3.9621 C   0  0  1  0  0  0  0  0  0  0  0  0
   16.0791   -5.3035   -4.4977 O   0  0  0  0  0  0  0  0  0  0  0  0
   16.9110   -3.0595   -4.8263 C   0  0  1  0  0  0  0  0  0  0  0  0
   15.7960   -2.2352   -4.3587 N   0  0  0  0  0  0  0  0  0  0  0  0
   14.6405   -2.3379   -5.2122 C   0  0  0  0  0  3  0  0  0  0  0  0
   14.5661   -1.0095   -5.9584 C   0  0  2  0  0  0  0  0  0  0  0  0
   14.7762    0.2496   -5.5125 C   0  0  0  0  0  0  0  0  0  0  0  0
   13.4111   -0.2728   -5.3963 O   0  0  0  0  0  0  0  0  0  0  0  0
  2  1  1  6
  2  3  1  0
  3  4  1  0
  4  5  1  6
  4  6  1  0
  6  7  1  1
  6  8  1  0
  8  9  1  6
  8 10  1  0
 10 11  1  1
 11 12  1  0
 13 12  1  1
 13 14  1  0
 13 15  1  0
 10  2  1  0
 15 14  1  0
M  RAD  1  12   2
M  END
>  <docking_score>  (2) 
-4.0839999999999996

$$$$

     RDKit          3D

 15 16  0  0  0  0  0  0  0  0999 V2000
   13.5225   -5.2927   -6.1172 C   0  0  0  0  0  0  0  0  0  0  0  0
   14.8117   -5.9406   -5.6332 C   0  0  1  0  0  0  0  0  0  0  0  0
   15.8456   -5.7882   -6.7407 C   0  0  0  0  0  0  0  0  0  0  0  0
   17.2322   -6.1297   -6.3118 C   0  0  2  0  0  0  0  0  0  0  0  0
   17.3894   -7.4956   -6.3645 O   0  0  0  0  0  0  0  0  0  0  0  0
   17.6468   -5.5037   -5.0142 C   0  0  2  0  0  0  0  0  0  0  0  0
   18.8905   -5.9248   -4.6238 O   0  0  0  0  0  0  0  0  0  0  0  0
   16.5758   -5.7816   -3.9805 C   0  0  1  0  0  0  0  0  0  0  0  0
   16.9316   -5.3788   -2.7087 O   0  0  0  0  0  0  0  0  0  0  0  0
   15.3218   -5.0701   -4.4831 C   0  0  1  0  0  0  0  0  0  0  0  0
   15.7949   -3.8472   -5.1327 N   0  0  0  0  0  0  0  0  0  0  0  0
   15.3587   -2.6571   -4.4486 C   0  0  0  0  0  3  0  0  0  0  0  0
   14.7656   -1.7599   -5.5303 C   0  0  2  0  0  0  0  0  0  0  0  0
   14.7756   -0.4125   -5.6424 C   0  0  0  0  0  0  0  0  0  0  0  0
   13.6617   -1.0046   -4.8950 O   0  0  0  0  0  0  0  0  0  0  0  0
  2  1  1  6
  2  3  1  0
  3  4  1  0
  4  5  1  1
  4  6  1  0
  6  7  1  1
  6  8  1  0
  8  9  1  1
  8 10  1  0
 10 11  1  6
 11 12  1  0
 13 12  1  1
 13 14  1  0
 13 15  1  0
 10  2  1  0
 15 14  1  0
M  RAD  1  12   2
M  END
>  <docking_score>  (3) 
-3.923

$$$$
