
     RDKit          3D

  7  6  0  0  0  0  0  0  0  0999 V2000
    4.5796    0.9948   24.9207 C   0  0  0  0  0  0  0  0  0  0  0  0
    5.9346    1.3524   25.4631 C   0  0  2  0  0  0  0  0  0  0  0  0
    6.8286    0.1306   25.5225 C   0  0  0  0  0  0  0  0  0  0  0  0
    6.0334   -1.1442   25.5739 C   0  0  0  0  0  0  0  0  0  0  0  0
    5.8016    1.9509   26.8645 C   0  0  0  0  0  0  0  0  0  0  0  0
    7.1174    1.8338   27.5541 C   0  0  0  0  0  0  0  0  0  0  0  0
    7.1980    1.9677   28.7786 O   0  0  0  0  0  0  0  0  0  0  0  0
  2  1  1  1
  2  3  1  0
  3  4  1  0
  2  5  1  0
  5  6  1  0
  6  7  2  0
M  END
>  <docking_score>  (1) 
-3.456

$$$$

     RDKit          3D

  7  6  0  0  0  0  0  0  0  0999 V2000
    6.9721    1.9203   28.0576 C   0  0  0  0  0  0  0  0  0  0  0  0
    6.9153    1.3228   26.6800 C   0  0  2  0  0  0  0  0  0  0  0  0
    7.8549    2.0503   25.7401 C   0  0  0  0  0  0  0  0  0  0  0  0
    7.6332    1.6533   24.3072 C   0  0  0  0  0  0  0  0  0  0  0  0
    5.4901    1.3986   26.1297 C   0  0  0  0  0  0  0  0  0  0  0  0
    5.0509    0.0217   25.7665 C   0  0  0  0  0  0  0  0  0  0  0  0
    5.8226   -0.9345   25.8845 O   0  0  0  0  0  0  0  0  0  0  0  0
  2  1  1  1
  2  3  1  0
  3  4  1  0
  2  5  1  0
  5  6  1  0
  6  7  2  0
M  END
>  <docking_score>  (2) 
-3.3860000000000001

$$$$

     RDKit          3D

  7  6  0  0  0  0  0  0  0  0999 V2000
    5.5196   -0.4014   25.7502 C   0  0  0  0  0  0  0  0  0  0  0  0
    5.8056    1.0376   25.4253 C   0  0  2  0  0  0  0  0  0  0  0  0
    7.1707    1.1822   24.7842 C   0  0  0  0  0  0  0  0  0  0  0  0
    7.4990    0.0155   23.8947 C   0  0  0  0  0  0  0  0  0  0  0  0
    5.7508    1.8872   26.6961 C   0  0  0  0  0  0  0  0  0  0  0  0
    7.1204    1.9521   27.2795 C   0  0  0  0  0  0  0  0  0  0  0  0
    7.3124    1.6599   28.4634 O   0  0  0  0  0  0  0  0  0  0  0  0
  2  1  1  1
  2  3  1  0
  3  4  1  0
  2  5  1  0
  5  6  1  0
  6  7  2  0
M  END
>  <docking_score>  (3) 
-3.3719999999999999

$$$$
