
     RDKit          3D

 25 25  0  0  0  0  0  0  0  0999 V2000
   18.5844   -5.8462   -6.5894 C   0  0  0  0  0  0  0  0  0  0  0  0
   17.8107   -6.4608   -5.5079 C   0  0  1  0  0  0  0  0  0  0  0  0
   16.7176   -7.3563   -6.1110 C   0  0  0  0  0  0  0  0  0  0  0  0
   17.4356   -8.6181   -6.5727 C   0  0  2  0  0  0  0  0  0  0  0  0
   17.4469   -9.4893   -5.4731 O   0  0  0  0  0  0  0  0  0  0  0  0
   18.8868   -8.2609   -6.8356 C   0  0  2  0  0  0  0  0  0  0  0  0
   19.5063   -9.1726   -7.6836 O   0  0  0  0  0  0  0  0  0  0  0  0
   19.5509   -8.1781   -5.4824 C   0  0  1  0  0  0  0  0  0  0  0  0
   20.8102   -7.6307   -5.5423 O   0  0  0  0  0  0  0  0  0  0  0  0
   18.5762   -7.4066   -4.5675 C   0  0  1  0  0  0  0  0  0  0  0  0
   19.3574   -6.5176   -3.7321 N   0  0  0  0  0  0  0  0  0  0  0  0
   18.2814   -5.7570   -2.9586 C   0  0  0  0  0  3  0  0  0  0  0  0
   18.9328   -4.3306   -3.0693 C   0  0  0  0  0  0  0  0  0  0  0  0
   17.9661   -3.3574   -2.6231 C   0  0  1  0  0  0  0  0  0  0  0  0
   17.1583   -3.7469   -1.5857 O   0  0  0  0  0  0  0  0  0  0  0  0
   18.8713   -2.2261   -1.9491 C   0  0  0  0  0  0  0  0  0  0  0  0
   18.0444   -1.1229   -1.8921 O   0  0  0  0  0  0  0  0  0  0  0  0
   17.2872   -2.5453   -3.7409 C   0  0  1  0  0  0  0  0  0  0  0  0
   18.0243   -2.8754   -4.9133 O   0  0  0  0  0  0  0  0  0  0  0  0
   15.8507   -3.0619   -3.7932 C   0  0  2  0  0  0  0  0  0  0  0  0
   15.5550   -3.7298   -4.9770 O   0  0  0  0  0  0  0  0  0  0  0  0
   15.0818   -1.6992   -4.0233 C   0  0  0  0  0  3  0  0  0  0  0  0
   14.5472   -1.5747   -5.3954 C   0  0  0  0  0  0  0  0  0  0  0  0
   13.8808   -0.3011   -5.4635 O   0  0  0  0  0  0  0  0  0  0  0  0
   13.4679   -0.1989   -4.1576 O   0  0  0  0  0  0  0  0  0  0  0  0
  2  1  1  6
  2  3  1  0
  3  4  1  0
  4  5  1  1
  4  6  1  0
  6  7  1  6
  6  8  1  0
  8  9  1  6
  8 10  1  0
 10 11  1  1
 11 12  1  0
 12 13  1  0
 13 14  1  0
 14 15  1  1
 14 16  1  0
 16 17  1  0
 14 18  1  0
 18 19  1  6
 18 20  1  0
 20 21  1  6
 20 22  1  0
 22 23  1  0
 23 24  1  0
 24 25  1  0
 10  2  1  0
M  RAD  2  12   2  22   2
M  END
>  <docking_score>  (1) 
-3.9950000000000001

$$$$

     RDKit          3D

 25 25  0  0  0  0  0  0  0  0999 V2000
   20.1733   -4.1007   -3.6933 C   0  0  0  0  0  0  0  0  0  0  0  0
   18.9264   -3.8818   -2.9564 C   0  0  1  0  0  0  0  0  0  0  0  0
   19.2522   -3.3333   -1.5587 C   0  0  0  0  0  0  0  0  0  0  0  0
   19.6082   -1.8674   -1.7708 C   0  0  2  0  0  0  0  0  0  0  0  0
   18.4023   -1.1545   -1.6947 O   0  0  0  0  0  0  0  0  0  0  0  0
   20.0973   -1.7066   -3.1982 C   0  0  2  0  0  0  0  0  0  0  0  0
   20.8718   -0.5631   -3.3618 O   0  0  0  0  0  0  0  0  0  0  0  0
   18.8631   -1.7048   -4.0676 C   0  0  1  0  0  0  0  0  0  0  0  0
   19.1574   -1.8054   -5.4064 O   0  0  0  0  0  0  0  0  0  0  0  0
   17.9587   -2.8382   -3.5389 C   0  0  1  0  0  0  0  0  0  0  0  0
   17.3655   -3.5050   -4.6800 N   0  0  0  0  0  0  0  0  0  0  0  0
   16.0459   -4.0253   -4.1123 C   0  0  0  0  0  3  0  0  0  0  0  0
   15.2756   -4.1355   -5.4782 C   0  0  0  0  0  0  0  0  0  0  0  0
   14.9810   -5.5268   -5.7190 C   0  0  1  0  0  0  0  0  0  0  0  0
   13.6934   -5.8105   -6.0959 O   0  0  0  0  0  0  0  0  0  0  0  0
   15.8085   -5.8509   -7.0471 C   0  0  0  0  0  0  0  0  0  0  0  0
   15.8884   -4.6370   -7.6985 O   0  0  0  0  0  0  0  0  0  0  0  0
   15.6310   -6.5160   -4.7345 C   0  0  1  0  0  0  0  0  0  0  0  0
   14.5426   -7.2928   -4.2458 O   0  0  0  0  0  0  0  0  0  0  0  0
   16.6001   -7.3408   -5.5793 C   0  0  2  0  0  0  0  0  0  0  0  0
   16.4305   -8.7122   -5.4195 O   0  0  0  0  0  0  0  0  0  0  0  0
   17.9342   -7.1112   -4.7614 C   0  0  0  0  0  3  0  0  0  0  0  0
   18.7677   -8.3290   -4.6830 C   0  0  0  0  0  0  0  0  0  0  0  0
   19.6904   -8.2679   -5.7857 O   0  0  0  0  0  0  0  0  0  0  0  0
   20.3717   -7.1268   -5.4392 O   0  0  0  0  0  0  0  0  0  0  0  0
  2  1  1  6
  2  3  1  0
  3  4  1  0
  4  5  1  6
  4  6  1  0
  6  7  1  1
  6  8  1  0
  8  9  1  6
  8 10  1  0
 10 11  1  6
 11 12  1  0
 12 13  1  0
 13 14  1  0
 14 15  1  6
 14 16  1  0
 16 17  1  0
 14 18  1  0
 18 19  1  6
 18 20  1  0
 20 21  1  1
 20 22  1  0
 22 23  1  0
 23 24  1  0
 24 25  1  0
 10  2  1  0
M  RAD  2  12   2  22   2
M  END
>  <docking_score>  (2) 
-3.8620000000000001

$$$$

     RDKit          3D

 25 25  0  0  0  0  0  0  0  0999 V2000
   18.0220   -1.5732   -6.0966 C   0  0  0  0  0  0  0  0  0  0  0  0
   18.5062   -2.6944   -6.9055 C   0  0  1  0  0  0  0  0  0  0  0  0
   19.0411   -2.1614   -8.2435 C   0  0  0  0  0  0  0  0  0  0  0  0
   20.4017   -1.5551   -7.9242 C   0  0  2  0  0  0  0  0  0  0  0  0
   21.3344   -2.5962   -8.0440 O   0  0  0  0  0  0  0  0  0  0  0  0
   20.4053   -1.1597   -6.4591 C   0  0  2  0  0  0  0  0  0  0  0  0
   21.3717   -0.2002   -6.1770 O   0  0  0  0  0  0  0  0  0  0  0  0
   20.6060   -2.4370   -5.6797 C   0  0  1  0  0  0  0  0  0  0  0  0
   20.3943   -2.2743   -4.3315 O   0  0  0  0  0  0  0  0  0  0  0  0
   19.6898   -3.4927   -6.3340 C   0  0  1  0  0  0  0  0  0  0  0  0
   19.1008   -4.2892   -5.2770 N   0  0  0  0  0  0  0  0  0  0  0  0
   18.2335   -5.2805   -6.0513 C   0  0  0  0  0  3  0  0  0  0  0  0
   17.6629   -6.0538   -4.8073 C   0  0  0  0  0  0  0  0  0  0  0  0
   16.2386   -5.8322   -4.7529 C   0  0  1  0  0  0  0  0  0  0  0  0
   15.4814   -6.8981   -4.3396 O   0  0  0  0  0  0  0  0  0  0  0  0
   16.0752   -4.8029   -3.5415 C   0  0  0  0  0  0  0  0  0  0  0  0
   16.8747   -5.3254   -2.5456 O   0  0  0  0  0  0  0  0  0  0  0  0
   15.6586   -4.9988   -5.9101 C   0  0  1  0  0  0  0  0  0  0  0  0
   15.2813   -5.9650   -6.8852 O   0  0  0  0  0  0  0  0  0  0  0  0
   14.4535   -4.2735   -5.3144 C   0  0  2  0  0  0  0  0  0  0  0  0
   13.2598   -4.5801   -5.9595 O   0  0  0  0  0  0  0  0  0  0  0  0
   14.7187   -2.8139   -5.8625 C   0  0  0  0  0  3  0  0  0  0  0  0
   13.9778   -1.7817   -5.1077 C   0  0  0  0  0  0  0  0  0  0  0  0
   14.9571   -0.8481   -4.6174 O   0  0  0  0  0  0  0  0  0  0  0  0
   15.0592   -1.2961   -3.3231 O   0  0  0  0  0  0  0  0  0  0  0  0
  2  1  1  1
  2  3  1  0
  3  4  1  0
  4  5  1  1
  4  6  1  0
  6  7  1  6
  6  8  1  0
  8  9  1  1
  8 10  1  0
 10 11  1  1
 11 12  1  0
 12 13  1  0
 13 14  1  0
 14 15  1  1
 14 16  1  0
 16 17  1  0
 14 18  1  0
 18 19  1  6
 18 20  1  0
 20 21  1  6
 20 22  1  0
 22 23  1  0
 23 24  1  0
 24 25  1  0
 10  2  1  0
M  RAD  2  12   2  22   2
M  END
>  <docking_score>  (3) 
-3.2570000000000001

$$$$
