
     RDKit          3D

 11 11  0  0  0  0  0  0  0  0999 V2000
   13.8112    0.6339   -4.7086 O   0  0  0  0  0  0  0  0  0  0  0  0
   14.0106   -0.5428   -3.9751 C   0  0  0  0  0  0  0  0  0  0  0  0
   14.4201   -1.6201   -4.9315 C   0  0  1  0  0  0  0  0  0  0  0  0
   14.9302   -1.0302   -6.1290 N   0  0  0  0  0  0  0  0  0  0  0  0
   15.4113   -1.9612   -7.1015 C   0  0  0  0  0  3  0  0  0  0  0  0
   15.8715   -3.2688   -6.5266 C   0  0  2  0  0  0  0  0  0  0  0  0
   14.7109   -4.0247   -6.2596 O   0  0  0  0  0  0  0  0  0  0  0  0
   16.4850   -2.9718   -5.1636 C   0  0  1  0  0  0  0  0  0  0  0  0
   17.3724   -1.9237   -5.3099 O   0  0  0  0  0  0  0  0  0  0  0  0
   15.3477   -2.5706   -4.2557 C   0  0  1  0  0  0  0  0  0  0  0  0
   15.9035   -1.9929   -3.1103 O   0  0  0  0  0  0  0  0  0  0  0  0
  1  2  1  0
  3  2  1  1
  3  4  1  0
  4  5  1  0
  5  6  1  0
  6  7  1  1
  6  8  1  0
  8  9  1  6
  8 10  1  0
 10 11  1  1
 10  3  1  0
M  RAD  1   5   2
M  END
>  <docking_score>  (1) 
-3.4550000000000001

$$$$

     RDKit          3D

 11 11  0  0  0  0  0  0  0  0999 V2000
   10.2903   14.6039    3.0917 O   0  0  0  0  0  0  0  0  0  0  0  0
    9.2210   14.1475    3.8731 C   0  0  0  0  0  0  0  0  0  0  0  0
    8.2761   13.4077    2.9772 C   0  0  1  0  0  0  0  0  0  0  0  0
    8.0406   12.1000    3.5030 N   0  0  0  0  0  0  0  0  0  0  0  0
    7.1037   11.3130    2.7635 C   0  0  0  0  0  3  0  0  0  0  0  0
    6.1034   12.1171    1.9857 C   0  0  2  0  0  0  0  0  0  0  0  0
    6.7628   12.5692    0.8237 O   0  0  0  0  0  0  0  0  0  0  0  0
    5.8040   13.3720    2.7969 C   0  0  1  0  0  0  0  0  0  0  0  0
    5.5329   12.9904    4.0962 O   0  0  0  0  0  0  0  0  0  0  0  0
    7.0496   14.2236    2.7515 C   0  0  1  0  0  0  0  0  0  0  0  0
    6.9230   15.2121    3.7320 O   0  0  0  0  0  0  0  0  0  0  0  0
  1  2  1  0
  3  2  1  1
  3  4  1  0
  4  5  1  0
  5  6  1  0
  6  7  1  6
  6  8  1  0
  8  9  1  1
  8 10  1  0
 10 11  1  1
 10  3  1  0
M  RAD  1   5   2
M  END
>  <docking_score>  (2) 
-3.306

$$$$

     RDKit          3D

 11 11  0  0  0  0  0  0  0  0999 V2000
   16.4566   -4.4187   -1.4208 O   0  0  0  0  0  0  0  0  0  0  0  0
   17.0688   -4.0278   -2.6187 C   0  0  0  0  0  0  0  0  0  0  0  0
   16.0124   -3.4547   -3.5123 C   0  0  1  0  0  0  0  0  0  0  0  0
   15.8322   -2.0687   -3.2146 N   0  0  0  0  0  0  0  0  0  0  0  0
   14.8863   -1.3920   -4.0460 C   0  0  0  0  0  3  0  0  0  0  0  0
   14.7092   -2.0073   -5.4033 C   0  0  2  0  0  0  0  0  0  0  0  0
   13.8752   -3.1319   -5.2324 O   0  0  0  0  0  0  0  0  0  0  0  0
   16.0626   -2.5659   -5.8259 C   0  0  1  0  0  0  0  0  0  0  0  0
   17.0151   -1.5866   -5.6233 O   0  0  0  0  0  0  0  0  0  0  0  0
   16.3371   -3.7538   -4.9356 C   0  0  1  0  0  0  0  0  0  0  0  0
   17.6874   -4.0867   -5.0779 O   0  0  0  0  0  0  0  0  0  0  0  0
  1  2  1  0
  3  2  1  1
  3  4  1  0
  4  5  1  0
  5  6  1  0
  6  7  1  1
  6  8  1  0
  8  9  1  1
  8 10  1  0
 10 11  1  1
 10  3  1  0
M  RAD  1   5   2
M  END
>  <docking_score>  (3) 
-3.294

$$$$
