
     RDKit          3D

 40 45  0  0  0  0  0  0  0  0999 V2000
    4.4579   10.7386   15.5273 C   0  0  0  0  0  0  0  0  0  0  0  0
    5.1263   11.2518   14.3121 C   0  0  0  0  0  0  0  0  0  0  0  0
    4.4225   11.6272   13.2283 C   0  0  0  0  0  0  0  0  0  0  0  0
    5.0765   12.1041   12.1041 O   0  0  0  0  0  0  0  0  0  0  0  0
    4.5857   13.2412   11.4257 C   0  0  0  0  0  0  0  0  0  0  0  0
    5.2597   13.4544   10.1257 C   0  0  0  0  0  0  0  0  0  0  0  0
    5.5731   14.7532    9.8036 C   0  0  0  0  0  0  0  0  0  0  0  0
    6.1992   15.0881    8.6264 C   0  0  0  0  0  0  0  0  0  0  0  0
    6.5273   14.0915    7.7326 C   0  0  0  0  0  0  0  0  0  0  0  0
    7.3235   14.5279    6.2375 Cl  0  0  0  0  0  0  0  0  0  0  0  0
    6.2139   12.7711    8.0496 C   0  0  0  0  0  0  0  0  0  0  0  0
    5.5853   12.4595    9.2373 C   0  0  0  0  0  0  0  0  0  0  0  0
    5.2092   10.7621    9.5940 S   0  0  0  0  0  0  0  0  0  0  0  0
    2.9664   11.5164   13.2755 C   0  0  0  0  0  0  0  0  0  0  0  0
    2.2877   11.2081   12.1737 C   0  0  0  0  0  0  0  0  0  0  0  0
    2.9107   10.9650   10.8820 C   0  0  0  0  0  0  0  0  0  0  0  0
    2.3121   10.0884   10.0624 C   0  0  0  0  0  0  0  0  0  0  0  0
    2.8674    9.7845    8.7492 C   0  0  0  0  0  0  0  0  0  0  0  0
    4.1104   10.0276    8.4181 C   0  0  0  0  0  0  0  0  0  0  0  0
    4.6812    9.6186    6.7941 S   0  0  0  0  0  0  0  0  0  0  0  0
    4.9626   11.0471    5.7875 C   0  0  0  0  0  0  0  0  0  0  0  0
    3.9788   11.8996    5.5656 C   0  0  0  0  0  0  0  0  0  0  0  0
    2.6413   11.6532    6.1629 C   0  0  0  0  0  0  0  0  0  0  0  0
    4.1544   13.1016    4.7389 C   0  0  0  0  0  0  0  0  0  0  0  0
    5.5570   13.2531    4.3736 C   0  0  0  0  0  0  0  0  0  0  0  0
    6.1021   14.6921    3.9912 C   0  0  0  0  0  0  0  0  0  0  0  0
    6.9506   14.4028    2.5867 C   0  0  0  0  0  0  0  0  0  0  0  0
    7.3184   13.2003    2.7107 C   0  0  0  0  0  0  0  0  0  0  0  0
    8.3599   12.5005    3.6008 C   0  0  0  0  0  0  0  0  0  0  0  0
    7.5779   11.8887    4.7216 C   0  0  0  0  0  0  0  0  0  0  0  0
    6.1845   12.0809    4.3740 C   0  0  0  0  0  0  0  0  0  0  0  0
    5.3100   11.0446    3.7009 C   0  0  1  0  0  0  0  0  0  0  0  0
    5.1894   11.8440    2.3424 C   0  0  0  0  0  0  0  0  0  0  0  0
    6.2056   12.5946    1.9743 C   0  0  0  0  0  0  0  0  0  0  0  0
    6.8637   12.8940    0.5120 S   0  0  0  0  0  0  0  0  0  0  0  0
    6.8423   11.0014    0.1044 C   0  0  0  0  0  0  0  0  0  0  0  0
    5.9557   10.1735    1.1247 C   0  0  0  0  0  0  0  0  0  0  0  0
    5.8769   10.3632    2.4585 C   0  0  0  0  0  0  0  0  0  0  0  0
    4.1244   11.0770    2.2443 C   0  0  1  0  0  0  0  0  0  0  0  0
    3.4200   10.0607    3.4611 Cl  0  0  0  0  0  0  0  0  0  0  0  0
  1  2  1  0
  2  3  2  3
  3  4  1  0
  4  5  1  0
  5  6  1  0
  6  7  2  0
  7  8  1  0
  8  9  2  0
  9 10  1  0
  9 11  1  0
 11 12  2  0
 12 13  1  0
  3 14  1  0
 14 15  2  3
 15 16  1  0
 16 17  2  3
 17 18  1  0
 18 19  2  3
 19 20  1  0
 20 21  1  0
 21 22  2  3
 22 23  1  0
 22 24  1  0
 24 25  1  0
 25 26  1  0
 26 27  1  0
 27 28  2  0
 28 29  1  0
 29 30  2  0
 30 31  1  0
 32 31  1  1
 32 33  1  0
 33 34  2  0
 34 35  1  0
 35 36  1  0
 36 37  1  0
 37 38  2  0
 38 39  1  0
 39 40  1  1
 12  6  1  0
 19 13  1  0
 25 31  2  0
 34 28  1  0
 38 32  1  0
 39 33  1  0
M  END
>  <docking_score>  (1) 
-1.3100000000000001

$$$$
