
     RDKit          3D

 40 39  0  0  0  0  0  0  0  0999 V2000
   12.6094   -3.5785   -7.9228 C   0  0  0  0  0  0  0  0  0  0  0  0
   14.0637   -3.6900   -8.3164 C   0  0  0  0  0  0  0  0  0  0  0  0
   14.9772   -3.2190   -7.1902 C   0  0  0  0  0  0  0  0  0  0  0  0
   14.4268   -5.1119   -8.7398 C   0  0  0  0  0  0  0  0  0  0  0  0
   14.3324   -5.9621   -7.4843 C   0  0  0  0  0  0  0  0  0  0  0  0
   13.4918   -5.2814   -6.4285 C   0  0  0  0  0  0  0  0  0  0  0  0
   13.9342   -5.7607   -5.0680 C   0  0  1  0  0  0  0  0  0  0  0  0
   15.1588   -6.6376   -5.1652 C   0  0  0  0  0  0  0  0  0  0  0  0
   14.2546   -4.5715   -4.1970 C   0  0  0  0  0  0  0  0  0  0  0  0
   15.3378   -3.7172   -4.8173 C   0  0  0  0  0  0  0  0  0  0  0  0
   16.2988   -3.3082   -3.7213 C   0  0  0  0  0  0  0  0  0  0  0  0
   16.6593   -4.4910   -2.8383 C   0  0  0  0  0  3  0  0  0  0  0  0
   18.0988   -4.8612   -3.0834 C   0  0  0  0  0  3  0  0  0  0  0  0
   19.0487   -3.9736   -2.3055 C   0  0  0  0  0  2  0  0  0  0  0  0
   19.5549   -2.9160   -3.2782 C   0  0  0  0  0  3  0  0  0  0  0  0
   20.5528   -2.0638   -2.5365 C   0  0  0  0  0  3  0  0  0  0  0  0
   19.7241   -0.5597   -1.9816 S   0  0  0  0  0  0  0  0  0  0  0  0
   19.4755    0.5174   -3.4144 C   0  0  1  0  0  0  0  0  0  0  0  0
   19.9737    1.9088   -3.1817 C   0  0  0  0  0  2  0  0  0  0  0  0
   20.1217   -0.1555   -4.6076 C   0  0  0  0  0  0  0  0  0  0  0  0
   19.8181    0.7085   -5.8151 C   0  0  0  0  0  0  0  0  0  0  0  0
   19.2043    1.9993   -5.2806 C   0  0  2  0  0  0  0  0  0  0  0  0
   18.3334    2.5517   -6.4130 C   0  0  0  0  0  0  0  0  0  0  0  0
   20.3472    2.9428   -4.9757 C   0  0  0  0  0  0  0  0  0  0  0  0
   21.3462    2.7791   -6.1083 C   0  0  0  0  0  0  0  0  0  0  0  0
   20.6853    1.7957   -7.1019 C   0  0  2  0  0  0  0  0  0  0  0  0
   19.2964    2.0125   -6.8881 O   0  0  0  0  0  0  0  0  0  0  0  0
   21.0830    0.4282   -6.6210 C   0  0  0  0  0  0  0  0  0  0  0  0
   19.7654   -0.7718   -6.5321 S   0  0  0  0  0  0  0  0  0  0  0  0
   20.3479   -2.4546   -6.5070 C   0  0  0  0  0  0  0  0  0  0  0  0
   19.4071   -3.4085   -7.0772 C   0  0  0  0  0  0  0  0  0  0  0  0
   19.6740   -4.8434   -7.0745 C   0  0  0  0  0  0  0  0  0  0  0  0
   20.9344   -5.4876   -6.0387 S   0  0  0  0  0  0  0  0  0  0  0  0
   20.5245   -6.9187   -5.0473 C   0  0  0  0  0  0  0  0  0  0  0  0
   20.8088   -8.4768   -5.9340 S   0  0  0  0  0  0  0  0  0  0  0  0
   19.3082   -8.9820   -6.8471 C   0  0  0  0  0  0  0  0  0  0  0  0
   19.7239   -9.6409   -8.1544 C   0  0  0  0  0  0  0  0  0  0  0  0
   18.4230  -10.7633   -8.7393 S   0  0  0  0  0  0  0  0  0  0  0  0
   16.9668  -10.4608   -7.7259 C   0  0  0  0  0  0  0  0  0  0  0  0
   16.9063  -10.8392   -6.5736 O   0  0  0  0  0  0  0  0  0  0  0  0
  1  2  1  0
  2  3  1  0
  2  4  1  0
  4  5  1  0
  5  6  1  0
  6  7  1  0
  7  8  1  6
  7  9  1  0
  9 10  1  0
 10 11  1  0
 11 12  1  0
 12 13  1  0
 13 14  1  0
 14 15  1  0
 15 16  1  0
 16 17  1  0
 17 18  1  0
 18 19  1  1
 18 20  1  0
 20 21  1  0
 21 22  1  0
 22 23  1  6
 22 24  1  0
 24 25  1  0
 25 26  1  0
 26 27  1  1
 26 28  1  0
 28 29  1  0
 29 30  1  0
 30 31  1  0
 31 32  1  0
 32 33  1  0
 33 34  1  0
 34 35  1  0
 35 36  1  0
 36 37  1  0
 37 38  1  0
 38 39  1  0
 39 40  2  0
M  RAD  6  12   2  13   2  14   3  15   2  16   2  19   3
M  END
>  <docking_score>  (1) 
5.0590000000000002

$$$$
