
     RDKit          3D

 11 11  0  0  0  0  0  0  0  0999 V2000
   14.4714   -0.0590   -5.5173 C   0  0  0  0  0  0  0  0  0  0  0  0
   14.6011   -1.5084   -5.1025 C   0  0  0  0  0  3  0  0  0  0  0  0
   15.9046   -1.7796   -4.3772 C   0  0  2  0  0  0  0  0  0  0  0  0
   16.4264   -3.1078   -4.8432 C   0  0  2  0  0  0  0  0  0  0  0  0
   16.1422   -3.3597   -6.1872 O   0  0  0  0  0  0  0  0  0  0  0  0
   15.8783   -4.1812   -3.9340 C   0  0  0  0  0  0  0  0  0  0  0  0
   16.8546   -4.4572   -2.9842 O   0  0  0  0  0  0  0  0  0  0  0  0
   16.8081   -3.6148   -1.8893 C   0  0  0  0  0  3  0  0  0  0  0  0
   16.6910   -2.1672   -2.2335 C   0  0  1  0  0  0  0  0  0  0  0  0
   17.8460   -1.6073   -2.7433 O   0  0  0  0  0  0  0  0  0  0  0  0
   15.6055   -1.8812   -3.0242 O   0  0  0  0  0  0  0  0  0  0  0  0
  1  2  1  0
  3  2  1  6
  3  4  1  0
  4  5  1  6
  4  6  1  0
  6  7  1  0
  7  8  1  0
  8  9  1  0
  9 10  1  6
  9 11  1  0
 11  3  1  0
M  RAD  2   2   2   8   2
M  END
>  <docking_score>  (1) 
-3.665

$$$$

     RDKit          3D

 11 11  0  0  0  0  0  0  0  0999 V2000
    6.9918   10.6403    4.8584 C   0  0  0  0  0  0  0  0  0  0  0  0
    7.1400   11.4393    3.5820 C   0  0  0  0  0  3  0  0  0  0  0  0
    7.6300   12.8496    3.8456 C   0  0  2  0  0  0  0  0  0  0  0  0
    6.9272   13.7704    2.8907 C   0  0  2  0  0  0  0  0  0  0  0  0
    5.6167   13.3710    2.6192 O   0  0  0  0  0  0  0  0  0  0  0  0
    7.7599   13.8830    1.6365 C   0  0  0  0  0  0  0  0  0  0  0  0
    8.5165   15.0437    1.7450 O   0  0  0  0  0  0  0  0  0  0  0  0
    9.7058   14.8614    2.4253 C   0  0  0  0  0  3  0  0  0  0  0  0
    9.5710   14.1054    3.7052 C   0  0  1  0  0  0  0  0  0  0  0  0
    8.9771   14.8181    4.7283 O   0  0  0  0  0  0  0  0  0  0  0  0
    8.9874   12.8721    3.5505 O   0  0  0  0  0  0  0  0  0  0  0  0
  1  2  1  0
  3  2  1  6
  3  4  1  0
  4  5  1  6
  4  6  1  0
  6  7  1  0
  7  8  1  0
  8  9  1  0
  9 10  1  1
  9 11  1  0
 11  3  1  0
M  RAD  2   2   2   8   2
M  END
>  <docking_score>  (2) 
-3.661

$$$$

     RDKit          3D

 11 11  0  0  0  0  0  0  0  0999 V2000
   10.8606   14.8482    5.2152 C   0  0  0  0  0  0  0  0  0  0  0  0
   10.4907   14.9506    3.7516 C   0  0  0  0  0  3  0  0  0  0  0  0
    9.4409   13.9308    3.3559 C   0  0  2  0  0  0  0  0  0  0  0  0
    8.6841   14.4772    2.1803 C   0  0  2  0  0  0  0  0  0  0  0  0
    9.4867   15.2350    1.3246 O   0  0  0  0  0  0  0  0  0  0  0  0
    7.5023   15.2620    2.6967 C   0  0  0  0  0  0  0  0  0  0  0  0
    6.3958   14.4224    2.6500 O   0  0  0  0  0  0  0  0  0  0  0  0
    6.2616   13.6292    3.7740 C   0  0  0  0  0  3  0  0  0  0  0  0
    7.5201   12.9483    4.1984 C   0  0  1  0  0  0  0  0  0  0  0  0
    7.9058   11.9031    3.3821 O   0  0  0  0  0  0  0  0  0  0  0  0
    8.5598   13.8164    4.4241 O   0  0  0  0  0  0  0  0  0  0  0  0
  1  2  1  0
  3  2  1  1
  3  4  1  0
  4  5  1  1
  4  6  1  0
  6  7  1  0
  7  8  1  0
  8  9  1  0
  9 10  1  6
  9 11  1  0
 11  3  1  0
M  RAD  2   2   2   8   2
M  END
>  <docking_score>  (3) 
-3.6080000000000001

$$$$
