
     RDKit          3D

 45 48  0  0  0  0  0  0  0  0999 V2000
    2.9375    8.5001    5.8627 C   0  0  0  0  0  0  0  0  0  0  0  0
    3.2013    7.7863    4.7804 C   0  0  0  0  0  0  0  0  0  0  0  0
    2.9891    6.3196    5.0137 C   0  0  0  0  0  0  0  0  0  0  0  0
    3.6464    8.0224    3.4004 C   0  0  0  0  0  0  0  0  0  0  0  0
    4.2604    9.0746    2.8561 C   0  0  0  0  0  0  0  0  0  0  0  0
    4.7555   10.3656    3.3971 C   0  0  0  0  0  0  0  0  0  0  0  0
    4.6984   10.8519    4.6431 C   0  0  0  0  0  0  0  0  0  0  0  0
    4.9285   12.3007    4.4522 C   0  0  0  0  0  0  0  0  0  0  0  0
    6.4002   12.6032    4.3602 C   0  0  0  0  0  0  0  0  0  0  0  0
    6.5889   14.0727    4.4399 C   0  0  0  0  0  0  0  0  0  0  0  0
    6.5042   14.8692    3.1738 C   0  0  0  0  0  0  0  0  0  0  0  0
    7.6040   14.6247    2.3668 O   0  0  0  0  0  0  0  0  0  0  0  0
    7.3909   13.4490    1.6592 C   0  0  0  0  0  0  0  0  0  0  0  0
    4.4819   10.3514    6.0215 C   0  0  0  0  0  0  0  0  0  0  0  0
    3.0441    9.9534    6.1383 C   0  0  2  0  0  0  0  0  0  0  0  0
    2.6080    9.7355    7.5668 C   0  0  0  0  0  0  0  0  0  0  0  0
    2.4426    8.2675    7.2398 C   0  0  2  0  0  0  0  0  0  0  0  0
    3.3744    7.4918    8.1447 C   0  0  0  0  0  0  0  0  0  0  0  0
    2.8208    7.6593    9.5662 C   0  0  0  0  0  0  0  0  0  0  0  0
    3.9073    8.0873   10.5281 C   0  0  0  0  0  0  0  0  0  0  0  0
    3.6790    9.4663   11.0774 C   0  0  0  0  0  0  0  0  0  0  0  0
    3.6012    9.4782   12.5876 C   0  0  0  0  0  0  0  0  0  0  0  0
    3.7718   10.8845   13.1194 C   0  0  0  0  0  0  0  0  0  0  0  0
    5.1752   11.4128   12.8387 C   0  0  0  0  0  0  0  0  0  0  0  0
    5.0528   12.4055   11.7103 C   0  0  0  0  0  0  0  0  0  0  0  0
    4.1124   13.5369   12.0466 C   0  0  0  0  0  0  0  0  0  0  0  0
    4.5318   14.8147   11.3585 C   0  0  0  0  0  0  0  0  0  0  0  0
    5.9822   14.7262   10.8630 C   0  0  2  0  0  0  0  0  0  0  0  0
    6.6888   15.9242   11.4669 C   0  0  0  0  0  0  0  0  0  0  0  0
    7.5848   15.5122   12.6156 C   0  0  0  0  0  0  0  0  0  0  0  0
    8.8866   14.9939   12.0341 C   0  0  0  0  0  0  0  0  0  0  0  0
    9.3295   13.7999   12.8718 C   0  0  2  0  0  0  0  0  0  0  0  0
    8.7508   13.9193   14.2746 C   0  0  0  0  0  0  0  0  0  0  0  0
    9.7370   14.7266   15.0632 C   0  0  0  0  0  3  0  0  0  0  0  0
   10.9626   14.9179   14.1955 C   0  0  0  0  0  0  0  0  0  0  0  0
   10.7785   13.8812   13.1540 C   0  0  0  0  0  0  0  0  0  0  0  0
   11.6863   13.1942   12.6065 N   0  0  0  0  0  0  0  0  0  0  0  0
   11.3405   12.2320   11.6138 C   0  0  0  0  0  0  0  0  0  0  0  0
    5.9220   14.8654    9.3519 C   0  0  0  0  0  0  0  0  0  0  0  0
    7.1998   15.4838    8.8202 C   0  0  0  0  0  0  0  0  0  0  0  0
    7.8824   14.6179    7.8033 C   0  0  2  0  0  0  0  0  0  0  0  0
    8.8156   15.4092    7.0538 N   0  0  0  0  0  0  0  0  0  0  0  0
    9.8386   15.9024    7.9486 C   0  0  0  0  0  0  0  0  0  0  0  0
    6.9186   13.9312    6.9040 C   0  0  0  0  0  0  0  0  0  0  0  0
    6.8226   14.6413    5.6122 C   0  0  0  0  0  0  0  0  0  0  0  0
  1  2  2  3
  2  3  1  0
  2  4  1  0
  4  5  2  3
  5  6  1  0
  6  7  2  3
  7  8  1  0
  8  9  1  0
  9 10  1  0
 10 11  1  0
 11 12  1  0
 12 13  1  0
  7 14  1  0
 15 14  1  1
 15 16  1  0
 16 17  1  0
 17 18  1  1
 18 19  1  0
 19 20  1  0
 20 21  1  0
 21 22  1  0
 22 23  1  0
 23 24  1  0
 24 25  1  0
 25 26  1  0
 26 27  1  0
 27 28  1  0
 28 29  1  1
 29 30  1  0
 30 31  1  0
 32 31  1  6
 32 33  1  0
 33 34  1  0
 34 35  1  0
 35 36  1  0
 36 37  2  3
 37 38  1  0
 28 39  1  0
 39 40  1  0
 40 41  1  0
 41 42  1  6
 42 43  1  0
 41 44  1  0
 44 45  1  0
 15  1  1  0
 17  1  1  0
 10 45  2  3
 36 32  1  0
M  RAD  1  34   2
M  END
>  <docking_score>  (1) 
-4.1040000000000001

$$$$
