
     RDKit          3D

 12 11  0  0  0  0  0  0  0  0999 V2000
   13.8444    0.0891   -3.7103 O   0  0  0  0  0  0  0  0  0  0  0  0
   13.6010   -0.4521   -4.9788 C   0  0  0  0  0  0  0  0  0  0  0  0
   14.8420   -1.0843   -5.5198 C   0  0  0  0  0  3  0  0  0  0  0  0
   15.0583   -2.3996   -4.8962 N   0  0  0  0  0  0  0  0  0  0  0  0
   16.3856   -2.7788   -5.2779 C   0  0  2  0  0  0  0  0  0  0  0  0
   16.3098   -3.8084   -6.3534 C   0  0  0  0  0  0  0  0  0  0  0  0
   15.5982   -4.9396   -6.0379 O   0  0  0  0  0  0  0  0  0  0  0  0
   17.2403   -3.1941   -4.1008 C   0  0  1  0  0  0  0  0  0  0  0  0
   18.0388   -2.1239   -3.7119 O   0  0  0  0  0  0  0  0  0  0  0  0
   16.3040   -3.4774   -2.9251 C   0  0  2  0  0  0  0  0  0  0  0  0
   16.5968   -2.5385   -1.9274 O   0  0  0  0  0  0  0  0  0  0  0  0
   16.5546   -4.8973   -2.3991 C   0  0  0  0  0  2  0  0  0  0  0  0
  1  2  1  0
  2  3  1  0
  3  4  1  0
  4  5  1  0
  5  6  1  6
  6  7  1  0
  5  8  1  0
  8  9  1  1
  8 10  1  0
 10 11  1  0
 10 12  1  1
M  RAD  2   3   2  12   3
M  END
>  <docking_score>  (1) 
-2.9399999999999999

$$$$

     RDKit          3D

 12 11  0  0  0  0  0  0  0  0999 V2000
   17.8209   -6.2857   -4.3996 O   0  0  0  0  0  0  0  0  0  0  0  0
   16.4386   -6.0821   -4.3057 C   0  0  0  0  0  0  0  0  0  0  0  0
   16.1431   -4.9470   -3.3800 C   0  0  0  0  0  3  0  0  0  0  0  0
   15.6010   -3.8037   -4.1312 N   0  0  0  0  0  0  0  0  0  0  0  0
   16.5467   -2.7463   -3.9336 C   0  0  2  0  0  0  0  0  0  0  0  0
   16.7098   -2.5032   -2.4718 C   0  0  0  0  0  0  0  0  0  0  0  0
   16.1103   -1.3644   -1.9929 O   0  0  0  0  0  0  0  0  0  0  0  0
   16.2087   -1.4998   -4.7212 C   0  0  1  0  0  0  0  0  0  0  0  0
   17.1082   -1.3620   -5.7728 O   0  0  0  0  0  0  0  0  0  0  0  0
   14.8352   -1.7129   -5.3595 C   0  0  2  0  0  0  0  0  0  0  0  0
   15.0025   -1.6066   -6.7463 O   0  0  0  0  0  0  0  0  0  0  0  0
   13.8648   -0.6321   -4.8637 C   0  0  0  0  0  2  0  0  0  0  0  0
  1  2  1  0
  2  3  1  0
  3  4  1  0
  4  5  1  0
  5  6  1  1
  6  7  1  0
  5  8  1  0
  8  9  1  6
  8 10  1  0
 10 11  1  0
 10 12  1  1
M  RAD  2   3   2  12   3
M  END
>  <docking_score>  (2) 
-2.9180000000000001

$$$$

     RDKit          3D

 12 11  0  0  0  0  0  0  0  0999 V2000
   18.6540   -1.1686   -1.8136 O   0  0  0  0  0  0  0  0  0  0  0  0
   18.1727   -2.3157   -2.4568 C   0  0  0  0  0  0  0  0  0  0  0  0
   16.7045   -2.4644   -2.2226 C   0  0  0  0  0  3  0  0  0  0  0  0
   16.1867   -3.6316   -2.9539 N   0  0  0  0  0  0  0  0  0  0  0  0
   16.1839   -3.2371   -4.3307 C   0  0  2  0  0  0  0  0  0  0  0  0
   14.8957   -2.5537   -4.6409 C   0  0  0  0  0  0  0  0  0  0  0  0
   13.9772   -3.3098   -5.3267 O   0  0  0  0  0  0  0  0  0  0  0  0
   16.5061   -4.3779   -5.2704 C   0  0  1  0  0  0  0  0  0  0  0  0
   17.7828   -4.1979   -5.7918 O   0  0  0  0  0  0  0  0  0  0  0  0
   16.5614   -5.6611   -4.4399 C   0  0  2  0  0  0  0  0  0  0  0  0
   17.8203   -6.2377   -4.6525 O   0  0  0  0  0  0  0  0  0  0  0  0
   15.4588   -6.6221   -4.9050 C   0  0  0  0  0  2  0  0  0  0  0  0
  1  2  1  0
  2  3  1  0
  3  4  1  0
  4  5  1  0
  5  6  1  6
  6  7  1  0
  5  8  1  0
  8  9  1  1
  8 10  1  0
 10 11  1  0
 10 12  1  6
M  RAD  2   3   2  12   3
M  END
>  <docking_score>  (3) 
-2.891

$$$$
