
     RDKit          3D

 15 15  0  0  0  0  0  0  0  0999 V2000
    3.3837   -4.9910   -7.4585 N   0  0  0  0  0  0  0  0  0  0  0  0
    4.7212   -4.5805   -7.9155 C   0  0  1  0  0  0  0  0  0  0  0  0
    5.3701   -3.9019   -6.7592 C   0  0  0  0  0  0  0  0  0  0  0  0
    5.6727   -2.4728   -6.9747 C   0  0  0  0  0  0  0  0  0  0  0  0
    5.3536   -1.8162   -8.1593 C   0  0  0  0  0  0  0  0  0  0  0  0
    5.6478   -0.4777   -8.3324 C   0  0  0  0  0  0  0  0  0  0  0  0
    6.2698    0.2582   -7.3342 C   0  0  0  0  0  0  0  0  0  0  0  0
    6.5786    1.6044   -7.4773 O   0  0  0  0  0  0  0  0  0  0  0  0
    6.5882   -0.3859   -6.1591 C   0  0  0  0  0  0  0  0  0  0  0  0
    7.2188    0.3475   -5.1392 O   0  0  0  0  0  0  0  0  0  0  0  0
    6.2907   -1.7301   -5.9906 C   0  0  0  0  0  0  0  0  0  0  0  0
    5.4405   -5.8193   -8.3004 C   0  0  0  0  0  0  0  0  0  0  0  0
    4.8479   -6.8391   -8.7355 O   0  0  0  0  0  0  0  0  0  0  0  0
    6.8238   -5.8997   -8.1921 O   0  0  0  0  0  0  0  0  0  0  0  0
    7.5461   -6.9900   -8.7396 C   0  0  0  0  0  0  0  0  0  0  0  0
  2  1  1  1
  2  3  1  0
  3  4  1  0
  4  5  2  0
  5  6  1  0
  6  7  2  0
  7  8  1  0
  7  9  1  0
  9 10  1  0
  9 11  2  0
  2 12  1  0
 12 13  2  0
 12 14  1  0
 14 15  1  0
 11  4  1  0
M  END
>  <docking_score>  (1) 
-5.8099999999999996

$$$$

     RDKit          3D

 15 15  0  0  0  0  0  0  0  0999 V2000
    6.6596   12.7775    0.8680 N   0  0  0  0  0  0  0  0  0  0  0  0
    6.7395   12.7912    2.3375 C   0  0  1  0  0  0  0  0  0  0  0  0
    7.4366   11.5353    2.7318 C   0  0  0  0  0  0  0  0  0  0  0  0
    6.6058   10.5842    3.4969 C   0  0  0  0  0  0  0  0  0  0  0  0
    6.7166   10.4439    4.8768 C   0  0  0  0  0  0  0  0  0  0  0  0
    5.9249    9.5464    5.5666 C   0  0  0  0  0  0  0  0  0  0  0  0
    4.9932    8.7550    4.9105 C   0  0  0  0  0  0  0  0  0  0  0  0
    4.1829    7.8440    5.5749 O   0  0  0  0  0  0  0  0  0  0  0  0
    4.8785    8.8892    3.5444 C   0  0  0  0  0  0  0  0  0  0  0  0
    3.9386    8.0935    2.8667 O   0  0  0  0  0  0  0  0  0  0  0  0
    5.6761    9.7918    2.8567 C   0  0  0  0  0  0  0  0  0  0  0  0
    7.5213   13.9948    2.7121 C   0  0  0  0  0  0  0  0  0  0  0  0
    6.9794   15.0924    2.9981 O   0  0  0  0  0  0  0  0  0  0  0  0
    8.9097   13.9523    2.7617 O   0  0  0  0  0  0  0  0  0  0  0  0
    9.6738   15.1047    3.0754 C   0  0  0  0  0  0  0  0  0  0  0  0
  2  1  1  6
  2  3  1  0
  3  4  1  0
  4  5  2  0
  5  6  1  0
  6  7  2  0
  7  8  1  0
  7  9  1  0
  9 10  1  0
  9 11  2  0
  2 12  1  0
 12 13  2  0
 12 14  1  0
 14 15  1  0
 11  4  1  0
M  END
>  <docking_score>  (2) 
-3.9889999999999999

$$$$

     RDKit          3D

 15 15  0  0  0  0  0  0  0  0999 V2000
    4.9409    5.9497    4.6377 N   0  0  0  0  0  0  0  0  0  0  0  0
    4.4771    7.2291    5.1983 C   0  0  1  0  0  0  0  0  0  0  0  0
    4.3187    8.1597    4.0461 C   0  0  0  0  0  0  0  0  0  0  0  0
    5.3618    9.2001    3.9472 C   0  0  0  0  0  0  0  0  0  0  0  0
    6.1112    9.6076    5.0465 C   0  0  0  0  0  0  0  0  0  0  0  0
    7.0818   10.5828    4.9239 C   0  0  0  0  0  0  0  0  0  0  0  0
    7.3438   11.1892    3.7039 C   0  0  0  0  0  0  0  0  0  0  0  0
    8.3123   12.1720    3.5479 O   0  0  0  0  0  0  0  0  0  0  0  0
    6.6054   10.7902    2.6118 C   0  0  0  0  0  0  0  0  0  0  0  0
    6.8602   11.3963    1.3694 O   0  0  0  0  0  0  0  0  0  0  0  0
    5.6319    9.8106    2.7405 C   0  0  0  0  0  0  0  0  0  0  0  0
    3.1816    6.9578    5.8680 C   0  0  0  0  0  0  0  0  0  0  0  0
    2.3309    6.1599    5.3992 O   0  0  0  0  0  0  0  0  0  0  0  0
    2.8543    7.5886    7.0625 O   0  0  0  0  0  0  0  0  0  0  0  0
    3.8452    8.2004    7.8712 C   0  0  0  0  0  0  0  0  0  0  0  0
  2  1  1  6
  2  3  1  0
  3  4  1  0
  4  5  2  0
  5  6  1  0
  6  7  2  0
  7  8  1  0
  7  9  1  0
  9 10  1  0
  9 11  2  0
  2 12  1  0
 12 13  2  0
 12 14  1  0
 14 15  1  0
 11  4  1  0
M  END
>  <docking_score>  (3) 
-3.899

$$$$
