
     RDKit          3D

 12 12  0  0  0  0  0  0  0  0999 V2000
   14.0860   -2.0248   -4.9763 O   0  0  0  0  0  0  0  0  0  0  0  0
   14.9233   -3.1139   -5.1631 C   0  0  0  0  0  0  0  0  0  0  0  0
   16.1021   -3.0923   -4.2357 C   0  0  1  0  0  0  0  0  0  0  0  0
   15.8439   -2.2915   -3.0692 N   0  0  0  0  0  0  0  0  0  0  0  0
   17.0983   -1.8748   -2.4934 C   0  0  0  0  0  3  0  0  0  0  0  0
   17.9218   -3.1036   -2.2130 C   0  0  2  0  0  0  0  0  0  0  0  0
   19.0935   -3.1011   -2.9459 O   0  0  0  0  0  0  0  0  0  0  0  0
   17.1965   -4.3893   -2.4858 C   0  0  1  0  0  0  0  0  0  0  0  0
   16.2338   -4.5880   -1.4899 O   0  0  0  0  0  0  0  0  0  0  0  0
   16.6013   -4.4639   -3.8646 C   0  0  1  0  0  0  0  0  0  0  0  0
   15.6086   -5.4231   -3.9220 O   0  0  0  0  0  0  0  0  0  0  0  0
   16.0123   -6.5250   -4.5292 O   0  0  0  0  0  0  0  0  0  0  0  0
  1  2  1  0
  3  2  1  1
  3  4  1  0
  4  5  1  0
  5  6  1  0
  6  7  1  6
  6  8  1  0
  8  9  1  1
  8 10  1  0
 10 11  1  1
 11 12  1  0
 10  3  1  0
M  RAD  1   5   2
M  END
>  <docking_score>  (1) 
-3.4729999999999999

$$$$

     RDKit          3D

 12 12  0  0  0  0  0  0  0  0999 V2000
   15.7883   -6.0073   -3.7956 O   0  0  0  0  0  0  0  0  0  0  0  0
   16.1761   -4.7375   -3.3967 C   0  0  0  0  0  0  0  0  0  0  0  0
   16.0863   -3.7376   -4.5113 C   0  0  1  0  0  0  0  0  0  0  0  0
   14.8594   -3.8755   -5.2491 N   0  0  0  0  0  0  0  0  0  0  0  0
   15.0279   -3.3000   -6.5602 C   0  0  0  0  0  3  0  0  0  0  0  0
   15.4776   -1.8726   -6.3964 C   0  0  2  0  0  0  0  0  0  0  0  0
   16.7289   -1.6737   -6.9484 O   0  0  0  0  0  0  0  0  0  0  0  0
   15.5127   -1.4129   -4.9678 C   0  0  1  0  0  0  0  0  0  0  0  0
   14.2005   -1.2401   -4.5137 O   0  0  0  0  0  0  0  0  0  0  0  0
   16.3051   -2.3162   -4.0639 C   0  0  1  0  0  0  0  0  0  0  0  0
   15.9589   -2.1172   -2.7413 O   0  0  0  0  0  0  0  0  0  0  0  0
   16.9231   -1.5297   -2.0550 O   0  0  0  0  0  0  0  0  0  0  0  0
  1  2  1  0
  3  2  1  1
  3  4  1  0
  4  5  1  0
  5  6  1  0
  6  7  1  1
  6  8  1  0
  8  9  1  1
  8 10  1  0
 10 11  1  1
 11 12  1  0
 10  3  1  0
M  RAD  1   5   2
M  END
>  <docking_score>  (2) 
-3.3839999999999999

$$$$

     RDKit          3D

 12 12  0  0  0  0  0  0  0  0999 V2000
   13.7984    0.3145   -4.7224 O   0  0  0  0  0  0  0  0  0  0  0  0
   14.2234   -0.8689   -4.1386 C   0  0  0  0  0  0  0  0  0  0  0  0
   14.6797   -1.8739   -5.1543 C   0  0  1  0  0  0  0  0  0  0  0  0
   15.3332   -1.2417   -6.2687 N   0  0  0  0  0  0  0  0  0  0  0  0
   15.2848   -2.1231   -7.4086 C   0  0  0  0  0  3  0  0  0  0  0  0
   15.8993   -3.4400   -7.0152 C   0  0  2  0  0  0  0  0  0  0  0  0
   14.9804   -4.4687   -7.1009 O   0  0  0  0  0  0  0  0  0  0  0  0
   16.4836   -3.4422   -5.6324 C   0  0  1  0  0  0  0  0  0  0  0  0
   17.6627   -2.6887   -5.6362 O   0  0  0  0  0  0  0  0  0  0  0  0
   15.5238   -2.9773   -4.5725 C   0  0  1  0  0  0  0  0  0  0  0  0
   16.1996   -2.5836   -3.4335 O   0  0  0  0  0  0  0  0  0  0  0  0
   16.2356   -3.5365   -2.5189 O   0  0  0  0  0  0  0  0  0  0  0  0
  1  2  1  0
  3  2  1  1
  3  4  1  0
  4  5  1  0
  5  6  1  0
  6  7  1  1
  6  8  1  0
  8  9  1  6
  8 10  1  0
 10 11  1  1
 11 12  1  0
 10  3  1  0
M  RAD  1   5   2
M  END
>  <docking_score>  (3) 
-3.3199999999999998

$$$$
