
     RDKit          3D

  9  9  0  0  0  0  0  0  0  0999 V2000
    6.8506    0.9418   -6.6134 O   0  0  0  0  0  0  0  0  0  0  0  0
    5.6289    0.4973   -6.8606 O   0  0  0  0  0  0  0  0  0  0  0  0
    5.6285   -0.5703   -7.7316 C   0  0  0  0  0  3  0  0  0  0  0  0
    6.5595   -1.5410   -7.4472 O   0  0  0  0  0  0  0  0  0  0  0  0
    6.2624   -2.3212   -6.3614 C   0  0  2  0  0  0  0  0  0  0  0  0
    4.8941   -2.9299   -6.3928 C   0  0  0  0  0  0  0  0  0  0  0  0
    6.4095   -1.5562   -5.0735 C   0  0  0  0  0  3  0  0  0  0  0  0
    7.5406   -0.5729   -5.2081 C   0  0  0  0  0  3  0  0  0  0  0  0
    7.0597    0.7186   -5.3235 O   0  0  0  0  0  0  0  0  0  0  0  0
  1  2  1  0
  2  3  1  0
  3  4  1  0
  4  5  1  0
  5  6  1  6
  5  7  1  0
  7  8  1  0
  8  9  1  0
  9  1  1  0
M  RAD  3   3   2   7   2   8   2
M  END
>  <docking_score>  (1) 
-4.3369999999999997

$$$$

     RDKit          3D

  9  9  0  0  0  0  0  0  0  0999 V2000
    6.9638    0.3329   -5.5072 O   0  0  0  0  0  0  0  0  0  0  0  0
    7.4286   -0.9058   -5.4807 O   0  0  0  0  0  0  0  0  0  0  0  0
    6.4612   -1.8184   -5.1200 C   0  0  0  0  0  3  0  0  0  0  0  0
    5.2558   -1.6577   -5.7610 O   0  0  0  0  0  0  0  0  0  0  0  0
    5.2477   -2.0450   -7.0747 C   0  0  2  0  0  0  0  0  0  0  0  0
    5.7646   -3.4304   -7.3145 C   0  0  0  0  0  0  0  0  0  0  0  0
    6.0318   -1.0927   -7.9372 C   0  0  0  0  0  3  0  0  0  0  0  0
    5.8805    0.3036   -7.3969 C   0  0  0  0  0  3  0  0  0  0  0  0
    7.0426    0.7191   -6.7729 O   0  0  0  0  0  0  0  0  0  0  0  0
  1  2  1  0
  2  3  1  0
  3  4  1  0
  4  5  1  0
  5  6  1  1
  5  7  1  0
  7  8  1  0
  8  9  1  0
  9  1  1  0
M  RAD  3   3   2   7   2   8   2
M  END
>  <docking_score>  (2) 
-4.2270000000000003

$$$$

     RDKit          3D

  9  9  0  0  0  0  0  0  0  0999 V2000
    5.4871   -0.7739   -8.7400 O   0  0  0  0  0  0  0  0  0  0  0  0
    6.6788   -0.3014   -8.4118 O   0  0  0  0  0  0  0  0  0  0  0  0
    6.6146    0.5988   -7.3707 C   0  0  0  0  0  3  0  0  0  0  0  0
    5.8318    0.1971   -6.3145 O   0  0  0  0  0  0  0  0  0  0  0  0
    6.3786   -0.7886   -5.5366 C   0  0  2  0  0  0  0  0  0  0  0  0
    7.7658   -0.4966   -5.0525 C   0  0  0  0  0  0  0  0  0  0  0  0
    6.3973   -2.1124   -6.2528 C   0  0  0  0  0  3  0  0  0  0  0  0
    5.1826   -2.2151   -7.1351 C   0  0  0  0  0  3  0  0  0  0  0  0
    5.5271   -2.0704   -8.4666 O   0  0  0  0  0  0  0  0  0  0  0  0
  1  2  1  0
  2  3  1  0
  3  4  1  0
  4  5  1  0
  5  6  1  6
  5  7  1  0
  7  8  1  0
  8  9  1  0
  9  1  1  0
M  RAD  3   3   2   7   2   8   2
M  END
>  <docking_score>  (3) 
-3.8570000000000002

$$$$
