
     RDKit          3D

 25 26  0  0  0  0  0  0  0  0999 V2000
   17.5679   -1.3648   -6.1941 C   0  0  0  0  0  0  0  0  0  0  0  0
   18.8680   -1.2461   -5.4591 C   0  0  1  0  0  0  0  0  0  0  0  0
   19.1105    0.2328   -5.2289 C   0  0  0  0  0  0  0  0  0  0  0  0
   20.3016    0.4794   -4.3504 C   0  0  2  0  0  0  0  0  0  0  0  0
   21.3695   -0.2658   -4.8934 O   0  0  0  0  0  0  0  0  0  0  0  0
   19.9878   -0.1693   -2.9967 C   0  0  2  0  0  0  0  0  0  0  0  0
   20.9279    0.1667   -2.0499 O   0  0  0  0  0  0  0  0  0  0  0  0
   19.9624   -1.6572   -3.2391 C   0  0  1  0  0  0  0  0  0  0  0  0
   19.6515   -2.2539   -1.9961 O   0  0  0  0  0  0  0  0  0  0  0  0
   18.9182   -2.0591   -4.2130 C   0  0  1  0  0  0  0  0  0  0  0  0
   17.6565   -2.2429   -3.5617 N   0  0  0  0  0  0  0  0  0  0  0  0
   17.0924   -3.4969   -4.0455 C   0  0  0  0  0  3  0  0  0  0  0  0
   17.6191   -3.7547   -5.4241 C   0  0  0  0  0  0  0  0  0  0  0  0
   17.1294   -2.7780   -6.4406 C   0  0  2  0  0  0  0  0  0  0  0  0
   17.6732   -3.1667   -7.6846 O   0  0  0  0  0  0  0  0  0  0  0  0
   15.7337   -2.7579   -6.5091 O   0  0  0  0  0  0  0  0  0  0  0  0
   15.2167   -3.6173   -7.4418 C   0  0  2  0  0  0  0  0  0  0  0  0
   14.5608   -2.8811   -8.4158 O   0  0  0  0  0  0  0  0  0  0  0  0
   14.3139   -4.6801   -6.8557 C   0  0  2  0  0  0  0  0  0  0  0  0
   13.7970   -4.3004   -5.6291 O   0  0  0  0  0  0  0  0  0  0  0  0
   15.1583   -5.9230   -6.6131 C   0  0  0  0  0  3  0  0  0  0  0  0
   15.1277   -6.2813   -5.1426 C   0  0  0  0  0  0  0  0  0  0  0  0
   15.4631   -7.7448   -4.9777 C   0  0  0  0  0  3  0  0  0  0  0  0
   16.8356   -7.9378   -5.0263 O   0  0  0  0  0  0  0  0  0  0  0  0
   17.1364   -8.6382   -6.0999 O   0  0  0  0  0  0  0  0  0  0  0  0
  2  1  1  1
  2  3  1  0
  3  4  1  0
  4  5  1  6
  4  6  1  0
  6  7  1  1
  6  8  1  0
  8  9  1  1
  8 10  1  0
 10 11  1  1
 11 12  1  0
 12 13  1  0
 13 14  1  0
 14 15  1  6
 14 16  1  0
 16 17  1  0
 17 18  1  6
 17 19  1  0
 19 20  1  1
 19 21  1  0
 21 22  1  0
 22 23  1  0
 23 24  1  0
 24 25  1  0
 14  1  1  0
 10  2  1  0
M  RAD  3  12   2  21   2  23   2
M  END
>  <docking_score>  (1) 
-3.637

$$$$

     RDKit          3D

 25 26  0  0  0  0  0  0  0  0999 V2000
    4.1252    8.4693    9.3027 C   0  0  0  0  0  0  0  0  0  0  0  0
    3.4570    8.9248   10.5639 C   0  0  1  0  0  0  0  0  0  0  0  0
    4.1351    8.1982   11.7090 C   0  0  0  0  0  0  0  0  0  0  0  0
    3.6702    8.6945   13.0465 C   0  0  2  0  0  0  0  0  0  0  0  0
    2.2597    8.6715   13.0217 O   0  0  0  0  0  0  0  0  0  0  0  0
    4.0607   10.1755   13.1228 C   0  0  2  0  0  0  0  0  0  0  0  0
    3.8605   10.6823   14.3862 O   0  0  0  0  0  0  0  0  0  0  0  0
    3.2067   10.8887   12.1052 C   0  0  1  0  0  0  0  0  0  0  0  0
    3.5822   12.2503   12.1601 O   0  0  0  0  0  0  0  0  0  0  0  0
    3.4422   10.4049   10.7228 C   0  0  1  0  0  0  0  0  0  0  0  0
    4.5505   11.0866   10.1254 N   0  0  0  0  0  0  0  0  0  0  0  0
    4.1457   11.4890    8.7842 C   0  0  0  0  0  3  0  0  0  0  0  0
    3.1043   10.5302    8.2940 C   0  0  0  0  0  0  0  0  0  0  0  0
    3.6263    9.1513    8.0633 C   0  0  2  0  0  0  0  0  0  0  0  0
    2.5516    8.3779    7.5722 O   0  0  0  0  0  0  0  0  0  0  0  0
    4.6834    9.1440    7.1492 O   0  0  0  0  0  0  0  0  0  0  0  0
    4.2953    8.8825    5.8621 C   0  0  2  0  0  0  0  0  0  0  0  0
    4.9498    7.7443    5.4182 O   0  0  0  0  0  0  0  0  0  0  0  0
    4.5077   10.0427    4.9149 C   0  0  2  0  0  0  0  0  0  0  0  0
    3.4940   10.1366    3.9770 O   0  0  0  0  0  0  0  0  0  0  0  0
    5.7963    9.7841    4.1472 C   0  0  0  0  0  3  0  0  0  0  0  0
    5.5909   10.1063    2.6824 C   0  0  0  0  0  0  0  0  0  0  0  0
    6.7308   10.9697    2.1959 C   0  0  0  0  0  3  0  0  0  0  0  0
    6.2467   12.0707    1.5053 O   0  0  0  0  0  0  0  0  0  0  0  0
    5.0414   12.3632    1.9475 O   0  0  0  0  0  0  0  0  0  0  0  0
  2  1  1  6
  2  3  1  0
  3  4  1  0
  4  5  1  6
  4  6  1  0
  6  7  1  1
  6  8  1  0
  8  9  1  6
  8 10  1  0
 10 11  1  1
 11 12  1  0
 12 13  1  0
 13 14  1  0
 14 15  1  6
 14 16  1  0
 16 17  1  0
 17 18  1  6
 17 19  1  0
 19 20  1  6
 19 21  1  0
 21 22  1  0
 22 23  1  0
 23 24  1  0
 24 25  1  0
 14  1  1  0
 10  2  1  0
M  RAD  3  12   2  21   2  23   2
M  END
>  <docking_score>  (2) 
-3.3860000000000001

$$$$

     RDKit          3D

 25 26  0  0  0  0  0  0  0  0999 V2000
   18.8891   -5.0408   -3.2576 C   0  0  0  0  0  0  0  0  0  0  0  0
   18.7392   -3.5629   -3.0626 C   0  0  1  0  0  0  0  0  0  0  0  0
   19.5069   -3.2043   -1.8052 C   0  0  0  0  0  0  0  0  0  0  0  0
   19.5770   -1.7210   -1.5905 C   0  0  2  0  0  0  0  0  0  0  0  0
   18.2578   -1.2315   -1.6946 O   0  0  0  0  0  0  0  0  0  0  0  0
   20.3319   -1.1407   -2.7927 C   0  0  2  0  0  0  0  0  0  0  0  0
   20.6289    0.1894   -2.6036 O   0  0  0  0  0  0  0  0  0  0  0  0
   19.4337   -1.3366   -3.9878 C   0  0  1  0  0  0  0  0  0  0  0  0
   20.1388   -0.8217   -5.0995 O   0  0  0  0  0  0  0  0  0  0  0  0
   19.1417   -2.7664   -4.2541 C   0  0  1  0  0  0  0  0  0  0  0  0
   20.1714   -3.3571   -5.0546 N   0  0  0  0  0  0  0  0  0  0  0  0
   19.5203   -4.1213   -6.1114 C   0  0  0  0  0  3  0  0  0  0  0  0
   18.1772   -4.5656   -5.6186 C   0  0  0  0  0  0  0  0  0  0  0  0
   18.2497   -5.5623   -4.5103 C   0  0  2  0  0  0  0  0  0  0  0  0
   16.9220   -5.9121   -4.1798 O   0  0  0  0  0  0  0  0  0  0  0  0
   18.9700   -6.7003   -4.8836 O   0  0  0  0  0  0  0  0  0  0  0  0
   18.2571   -7.5701   -5.6653 C   0  0  2  0  0  0  0  0  0  0  0  0
   17.8648   -8.6509   -4.8914 O   0  0  0  0  0  0  0  0  0  0  0  0
   18.9980   -8.0220   -6.9043 C   0  0  2  0  0  0  0  0  0  0  0  0
   20.0678   -7.1941   -7.1977 O   0  0  0  0  0  0  0  0  0  0  0  0
   18.0346   -7.9311   -8.0791 C   0  0  0  0  0  3  0  0  0  0  0  0
   17.8758   -6.4850   -8.4979 C   0  0  0  0  0  0  0  0  0  0  0  0
   16.4083   -6.1275   -8.5135 C   0  0  0  0  0  3  0  0  0  0  0  0
   16.2410   -4.7694   -8.7399 O   0  0  0  0  0  0  0  0  0  0  0  0
   15.4346   -4.2742   -7.8243 O   0  0  0  0  0  0  0  0  0  0  0  0
  2  1  1  6
  2  3  1  0
  3  4  1  0
  4  5  1  6
  4  6  1  0
  6  7  1  1
  6  8  1  0
  8  9  1  6
  8 10  1  0
 10 11  1  1
 11 12  1  0
 12 13  1  0
 13 14  1  0
 14 15  1  1
 14 16  1  0
 16 17  1  0
 17 18  1  1
 17 19  1  0
 19 20  1  6
 19 21  1  0
 21 22  1  0
 22 23  1  0
 23 24  1  0
 24 25  1  0
 14  1  1  0
 10  2  1  0
M  RAD  3  12   2  21   2  23   2
M  END
>  <docking_score>  (3) 
-3.238

$$$$
