
     RDKit          3D

 29 28  0  0  0  0  0  0  0  0999 V2000
    2.8390   12.0542    2.0557 O   0  0  0  0  0  0  0  0  0  0  0  0
    2.6479   10.9970    2.8113 O   0  0  0  0  0  0  0  0  0  0  0  0
    3.7344   10.7933    3.6634 C   0  0  0  0  0  3  0  0  0  0  0  0
    3.2079   10.4654    4.9120 O   0  0  0  0  0  0  0  0  0  0  0  0
    4.0726    9.6119    5.5718 C   0  0  2  0  0  0  0  0  0  0  0  0
    3.8706    8.1591    5.1914 C   0  0  0  0  0  0  0  0  0  0  0  0
    3.9720    9.7833    7.0627 C   0  0  0  0  0  3  0  0  0  0  0  0
    2.6753   10.4484    7.4840 C   0  0  0  0  0  3  0  0  0  0  0  0
    2.9675   11.5532    8.4794 C   0  0  0  0  0  3  0  0  0  0  0  0
    3.0990   12.8403    7.7085 C   0  0  0  0  0  0  0  0  0  0  0  0
    4.2041   13.7233    8.2063 C   0  0  2  0  0  0  0  0  0  0  0  0
    3.8148   14.5991    9.3258 C   0  0  0  0  0  0  0  0  0  0  0  0
    3.8310   14.2885   10.4992 O   0  0  0  0  0  0  0  0  0  0  0  0
    4.8037   14.4789    7.2077 O   0  0  0  0  0  0  0  0  0  0  0  0
    6.0347   14.0055    7.0694 O   0  0  0  0  0  0  0  0  0  0  0  0
    6.8843   15.1000    7.2604 C   0  0  0  0  0  3  0  0  0  0  0  0
    7.6751   15.3624    6.1542 O   0  0  0  0  0  0  0  0  0  0  0  0
    8.1178   14.2117    5.5225 C   0  0  2  0  0  0  0  0  0  0  0  0
    9.4862   14.3905    4.9063 C   0  0  0  0  0  0  0  0  0  0  0  0
   10.3194   14.9392    5.8767 O   0  0  0  0  0  0  0  0  0  0  0  0
   10.8236   16.0750    5.4513 O   0  0  0  0  0  0  0  0  0  0  0  0
   11.3238   15.9929    4.1588 C   0  0  0  0  0  2  0  0  0  0  0  0
    7.1328   13.7746    4.4768 C   0  0  0  0  0  3  0  0  0  0  0  0
    7.6959   13.5562    3.2344 O   0  0  0  0  0  0  0  0  0  0  0  0
    6.9379   14.0747    2.1883 C   0  0  2  0  0  0  0  0  0  0  0  0
    5.6325   14.2742    2.6636 O   0  0  0  0  0  0  0  0  0  0  0  0
    6.8536   12.9915    1.1218 C   0  0  0  0  0  3  0  0  0  0  0  0
    6.6683   11.6272    1.7277 C   0  0  0  0  0  0  0  0  0  0  0  0
    6.6889   10.5624    0.6582 C   0  0  0  0  0  2  0  0  0  0  0  0
  1  2  1  0
  2  3  1  0
  3  4  1  0
  4  5  1  0
  5  6  1  1
  5  7  1  0
  7  8  1  0
  8  9  1  0
  9 10  1  0
 11 10  1  6
 11 12  1  0
 12 13  2  0
 11 14  1  0
 14 15  1  0
 15 16  1  0
 16 17  1  0
 17 18  1  0
 18 19  1  6
 19 20  1  0
 20 21  1  0
 21 22  1  0
 18 23  1  0
 23 24  1  0
 24 25  1  0
 25 26  1  1
 25 27  1  0
 27 28  1  0
 28 29  1  0
M  RAD  8   3   2   7   2   8   2   9   2  16   2  22   3  23   2  27   2
M  RAD  1  29   3
M  END
>  <docking_score>  (1) 
-1.6259999999999999

$$$$

     RDKit          3D

 29 28  0  0  0  0  0  0  0  0999 V2000
    7.6158   15.5502    2.2748 O   0  0  0  0  0  0  0  0  0  0  0  0
    7.1408   15.9751    3.4232 O   0  0  0  0  0  0  0  0  0  0  0  0
    7.6721   15.2383    4.4829 C   0  0  0  0  0  3  0  0  0  0  0  0
    6.7219   14.2740    4.8161 O   0  0  0  0  0  0  0  0  0  0  0  0
    7.2601   13.0121    4.6448 C   0  0  2  0  0  0  0  0  0  0  0  0
    8.7325   13.0431    4.2881 C   0  0  0  0  0  0  0  0  0  0  0  0
    6.4880   12.2272    3.6201 C   0  0  0  0  0  3  0  0  0  0  0  0
    4.9961   12.2234    3.8956 C   0  0  0  0  0  3  0  0  0  0  0  0
    4.6229   10.9765    4.6719 C   0  0  0  0  0  3  0  0  0  0  0  0
    5.1705   11.1254    6.0670 C   0  0  0  0  0  0  0  0  0  0  0  0
    4.1065   11.1831    7.1222 C   0  0  2  0  0  0  0  0  0  0  0  0
    3.6779   12.5500    7.4684 C   0  0  0  0  0  0  0  0  0  0  0  0
    2.5664   12.8642    7.8417 O   0  0  0  0  0  0  0  0  0  0  0  0
    4.4332   10.4880    8.2787 O   0  0  0  0  0  0  0  0  0  0  0  0
    4.2254   11.3230    9.2876 O   0  0  0  0  0  0  0  0  0  0  0  0
    4.6003   10.6245   10.4399 C   0  0  0  0  0  3  0  0  0  0  0  0
    4.7965   11.4567   11.5295 O   0  0  0  0  0  0  0  0  0  0  0  0
    5.1785   10.7703   12.6705 C   0  0  2  0  0  0  0  0  0  0  0  0
    4.2309    9.6397   12.9993 C   0  0  0  0  0  0  0  0  0  0  0  0
    4.5895    8.5455   12.2175 O   0  0  0  0  0  0  0  0  0  0  0  0
    3.6178    7.6619   12.2022 O   0  0  0  0  0  0  0  0  0  0  0  0
    2.4588    8.1237   12.8112 C   0  0  0  0  0  2  0  0  0  0  0  0
    5.2870   11.7098   13.8369 C   0  0  0  0  0  3  0  0  0  0  0  0
    5.8180   12.9435   13.5139 O   0  0  0  0  0  0  0  0  0  0  0  0
    5.2349   13.9941   14.2167 C   0  0  2  0  0  0  0  0  0  0  0  0
    6.0719   14.3003   15.3010 O   0  0  0  0  0  0  0  0  0  0  0  0
    3.9336   13.4665   14.8050 C   0  0  0  0  0  3  0  0  0  0  0  0
    3.6197   14.1098   16.1280 C   0  0  0  0  0  0  0  0  0  0  0  0
    2.2587   14.7614   16.0936 C   0  0  0  0  0  2  0  0  0  0  0  0
  1  2  1  0
  2  3  1  0
  3  4  1  0
  4  5  1  0
  5  6  1  6
  5  7  1  0
  7  8  1  0
  8  9  1  0
  9 10  1  0
 11 10  1  6
 11 12  1  0
 12 13  2  0
 11 14  1  0
 14 15  1  0
 15 16  1  0
 16 17  1  0
 17 18  1  0
 18 19  1  1
 19 20  1  0
 20 21  1  0
 21 22  1  0
 18 23  1  0
 23 24  1  0
 24 25  1  0
 25 26  1  1
 25 27  1  0
 27 28  1  0
 28 29  1  0
M  RAD  8   3   2   7   2   8   2   9   2  16   2  22   3  23   2  27   2
M  RAD  1  29   3
M  END
>  <docking_score>  (2) 
-1.339

$$$$
