
     RDKit          3D

 25 27  0  0  0  0  0  0  0  0999 V2000
   16.7582   -7.0092   -7.1311 C   0  0  0  0  0  0  0  0  0  0  0  0
   17.8088   -7.1160   -8.0369 O   0  0  0  0  0  0  0  0  0  0  0  0
   19.0182   -7.4069   -7.4000 C   0  0  0  0  0  3  0  0  0  0  0  0
   18.9785   -8.6328   -6.7297 O   0  0  0  0  0  0  0  0  0  0  0  0
   18.0271   -8.6573   -5.7234 C   0  0  2  0  0  0  0  0  0  0  0  0
   17.1057   -9.8420   -5.8882 C   0  0  0  0  0  0  0  0  0  0  0  0
   17.2921   -7.3393   -5.7777 C   0  0  2  0  0  0  0  0  0  0  0  0
   16.3021   -7.2193   -4.7289 N   0  0  0  0  0  0  0  0  0  0  0  0
   16.0512   -5.8161   -4.5640 C   0  0  1  0  0  0  0  0  0  0  0  0
   16.2809   -5.0982   -3.3158 C   0  0  0  0  0  0  0  0  0  0  0  0
   17.0824   -4.7657   -4.6128 C   0  0  1  0  0  0  0  0  0  0  0  0
   18.4092   -4.9594   -4.4348 O   0  0  0  0  0  0  0  0  0  0  0  0
   16.7328   -3.5151   -5.3447 C   0  0  0  0  0  0  0  0  0  0  0  0
   15.5413   -2.8055   -4.8060 C   0  0  0  0  0  0  0  0  0  0  0  0
   15.0282   -1.8844   -5.9132 C   0  0  0  0  0  3  0  0  0  0  0  0
   15.9580   -0.8564   -6.1280 O   0  0  0  0  0  0  0  0  0  0  0  0
   17.2634   -1.2951   -6.0202 C   0  0  0  0  0  0  0  0  0  0  0  0
   18.0594   -0.4912   -5.2105 O   0  0  0  0  0  0  0  0  0  0  0  0
   19.0017   -1.1974   -4.5057 C   0  0  0  0  0  3  0  0  0  0  0  0
   18.5044   -1.7589   -3.1929 C   0  0  0  0  0  3  0  0  0  0  0  0
   17.9773   -3.0360   -3.2868 O   0  0  0  0  0  0  0  0  0  0  0  0
   18.9240   -4.0057   -3.5564 C   0  0  1  0  0  0  0  0  0  0  0  0
   19.1930   -4.6933   -2.3620 O   0  0  0  0  0  0  0  0  0  0  0  0
   20.5666   -4.5964   -2.1249 C   0  0  0  0  0  3  0  0  0  0  0  0
   21.1708   -3.9652   -3.2311 O   0  0  0  0  0  0  0  0  0  0  0  0
  1  2  1  0
  2  3  1  0
  3  4  1  0
  4  5  1  0
  5  6  1  6
  5  7  1  0
  7  8  1  1
  9  8  1  1
  9 10  1  0
 11 10  1  1
 11 12  1  0
 11 13  1  0
 13 14  1  0
 14 15  1  0
 15 16  1  0
 16 17  1  0
 17 18  1  0
 18 19  1  0
 19 20  1  0
 20 21  1  0
 21 22  1  0
 22 23  1  1
 23 24  1  0
 24 25  1  0
  7  1  1  0
 11  9  1  0
 22 12  1  0
M  RAD  5   3   2  15   2  19   2  20   2  24   2
M  END
>  <docking_score>  (1) 
-4.335

$$$$

     RDKit          3D

 25 27  0  0  0  0  0  0  0  0999 V2000
   21.3542   -1.2441   -3.3370 C   0  0  0  0  0  0  0  0  0  0  0  0
   21.2035   -0.8309   -2.0171 O   0  0  0  0  0  0  0  0  0  0  0  0
   19.8846   -0.9672   -1.5758 C   0  0  0  0  0  3  0  0  0  0  0  0
   19.4563   -2.2975   -1.6006 O   0  0  0  0  0  0  0  0  0  0  0  0
   19.4657   -2.8349   -2.8772 C   0  0  2  0  0  0  0  0  0  0  0  0
   20.2517   -4.1236   -2.9084 C   0  0  0  0  0  0  0  0  0  0  0  0
   20.0406   -1.7828   -3.7954 C   0  0  2  0  0  0  0  0  0  0  0  0
   20.0494   -2.2073   -5.1790 N   0  0  0  0  0  0  0  0  0  0  0  0
   18.6984   -2.0931   -5.6489 C   0  0  1  0  0  0  0  0  0  0  0  0
   18.3007   -2.3527   -7.0274 C   0  0  0  0  0  0  0  0  0  0  0  0
   17.7772   -3.2255   -5.8445 C   0  0  1  0  0  0  0  0  0  0  0  0
   18.1436   -4.5196   -5.9879 O   0  0  0  0  0  0  0  0  0  0  0  0
   16.3667   -3.0272   -5.4051 C   0  0  0  0  0  0  0  0  0  0  0  0
   15.6718   -1.8959   -6.0764 C   0  0  0  0  0  0  0  0  0  0  0  0
   14.4811   -1.5143   -5.1963 C   0  0  0  0  0  3  0  0  0  0  0  0
   13.5346   -2.5489   -5.2242 O   0  0  0  0  0  0  0  0  0  0  0  0
   14.1209   -3.7995   -5.2446 C   0  0  0  0  0  0  0  0  0  0  0  0
   13.6027   -4.6452   -6.2203 O   0  0  0  0  0  0  0  0  0  0  0  0
   14.5415   -5.4883   -6.7599 C   0  0  0  0  0  3  0  0  0  0  0  0
   15.3225   -4.8946   -7.9102 C   0  0  0  0  0  3  0  0  0  0  0  0
   16.4851   -4.2454   -7.5301 O   0  0  0  0  0  0  0  0  0  0  0  0
   17.4657   -5.0984   -7.0611 C   0  0  1  0  0  0  0  0  0  0  0  0
   18.4235   -5.2579   -8.0756 O   0  0  0  0  0  0  0  0  0  0  0  0
   18.8264   -6.5957   -8.0626 C   0  0  0  0  0  3  0  0  0  0  0  0
   17.6832   -7.4087   -7.9245 O   0  0  0  0  0  0  0  0  0  0  0  0
  1  2  1  0
  2  3  1  0
  3  4  1  0
  4  5  1  0
  5  6  1  1
  5  7  1  0
  7  8  1  6
  9  8  1  6
  9 10  1  0
 11 10  1  6
 11 12  1  0
 11 13  1  0
 13 14  1  0
 14 15  1  0
 15 16  1  0
 16 17  1  0
 17 18  1  0
 18 19  1  0
 19 20  1  0
 20 21  1  0
 21 22  1  0
 22 23  1  6
 23 24  1  0
 24 25  1  0
  7  1  1  0
 11  9  1  0
 22 12  1  0
M  RAD  5   3   2  15   2  19   2  20   2  24   2
M  END
>  <docking_score>  (2) 
-4.2800000000000002

$$$$

     RDKit          3D

 25 27  0  0  0  0  0  0  0  0999 V2000
    2.5961    8.2589    4.4616 C   0  0  0  0  0  0  0  0  0  0  0  0
    3.2184    7.0765    4.0741 O   0  0  0  0  0  0  0  0  0  0  0  0
    4.5726    7.2697    3.7886 C   0  0  0  0  0  3  0  0  0  0  0  0
    5.2867    7.7182    4.9034 O   0  0  0  0  0  0  0  0  0  0  0  0
    4.8376    8.9450    5.3635 C   0  0  2  0  0  0  0  0  0  0  0  0
    4.5120    8.8765    6.8362 C   0  0  0  0  0  0  0  0  0  0  0  0
    3.6415    9.3217    4.5222 C   0  0  2  0  0  0  0  0  0  0  0  0
    3.1127   10.6229    4.8713 N   0  0  0  0  0  0  0  0  0  0  0  0
    3.7682   11.5716    4.0173 C   0  0  1  0  0  0  0  0  0  0  0  0
    3.4899   13.0027    4.0406 C   0  0  0  0  0  0  0  0  0  0  0  0
    4.8915   12.4333    4.4233 C   0  0  1  0  0  0  0  0  0  0  0  0
    5.2191   12.7474    5.6975 O   0  0  0  0  0  0  0  0  0  0  0  0
    6.0006   12.5978    3.4411 C   0  0  0  0  0  0  0  0  0  0  0  0
    5.5789   13.1715    2.1349 C   0  0  0  0  0  0  0  0  0  0  0  0
    6.6610   12.8125    1.1161 C   0  0  0  0  0  3  0  0  0  0  0  0
    7.8364   13.5137    1.4228 O   0  0  0  0  0  0  0  0  0  0  0  0
    8.0490   13.6165    2.7838 C   0  0  0  0  0  0  0  0  0  0  0  0
    8.3541   14.9062    3.2072 O   0  0  0  0  0  0  0  0  0  0  0  0
    7.8531   15.2004    4.4505 C   0  0  0  0  0  3  0  0  0  0  0  0
    6.4285   15.7068    4.4430 C   0  0  0  0  0  3  0  0  0  0  0  0
    5.4732   14.7120    4.5661 O   0  0  0  0  0  0  0  0  0  0  0  0
    5.4521   14.1181    5.8135 C   0  0  1  0  0  0  0  0  0  0  0  0
    4.3535   14.6329    6.5206 O   0  0  0  0  0  0  0  0  0  0  0  0
    4.8372   15.1469    7.7265 C   0  0  0  0  0  3  0  0  0  0  0  0
    3.7430   15.4044    8.5770 O   0  0  0  0  0  0  0  0  0  0  0  0
  1  2  1  0
  2  3  1  0
  3  4  1  0
  4  5  1  0
  5  6  1  1
  5  7  1  0
  7  8  1  1
  9  8  1  1
  9 10  1  0
 11 10  1  6
 11 12  1  0
 11 13  1  0
 13 14  1  0
 14 15  1  0
 15 16  1  0
 16 17  1  0
 17 18  1  0
 18 19  1  0
 19 20  1  0
 20 21  1  0
 21 22  1  0
 22 23  1  1
 23 24  1  0
 24 25  1  0
  7  1  1  0
 11  9  1  0
 22 12  1  0
M  RAD  5   3   2  15   2  19   2  20   2  24   2
M  END
>  <docking_score>  (3) 
-4.0179999999999998

$$$$
