
     RDKit          3D

 17 16  0  0  0  0  0  0  0  0999 V2000
   14.3564   -0.2427   -5.7299 C   0  0  0  0  0  0  0  0  0  0  0  0
   14.5677   -1.0690   -6.8499 O   0  0  0  0  0  0  0  0  0  0  0  0
   15.4291   -2.1414   -6.7519 C   0  0  0  0  0  0  0  0  0  0  0  0
   16.2324   -2.2936   -5.6850 C   0  0  0  0  0  0  0  0  0  0  0  0
   17.1123   -3.4266   -5.6282 C   0  0  0  0  0  0  0  0  0  0  0  0
   17.8454   -4.3785   -5.5851 C   0  0  0  0  0  0  0  0  0  0  0  0
   18.7352   -5.5368   -5.5090 C   0  0  0  0  0  0  0  0  0  0  0  0
   18.6220   -6.1289   -4.1491 C   0  0  1  0  0  0  0  0  0  0  0  0
   18.9926   -7.5689   -4.0490 C   0  0  0  0  0  0  0  0  0  0  0  0
   18.6638   -8.2817   -5.3226 C   0  0  0  0  0  0  0  0  0  0  0  0
   17.5980   -9.0805   -5.3353 C   0  0  0  0  0  0  0  0  0  0  0  0
   17.2902   -9.7473   -6.5262 O   0  0  0  0  0  0  0  0  0  0  0  0
   19.1440   -5.2850   -3.0411 C   0  0  0  0  0  0  0  0  0  0  0  0
   18.0898   -4.6948   -2.1687 C   0  0  2  0  0  0  0  0  0  0  0  0
   16.7695   -5.1937   -2.3907 N   0  0  0  0  0  0  0  0  0  0  0  0
   18.1886   -3.2165   -2.0030 C   0  0  0  0  0  3  0  0  0  0  0  0
   19.5123   -2.8403   -1.8880 F   0  0  0  0  0  0  0  0  0  0  0  0
  1  2  1  0
  2  3  1  0
  3  4  2  3
  4  5  1  0
  5  6  3  0
  6  7  1  0
  8  7  1  6
  8  9  1  0
  9 10  1  0
 10 11  2  3
 11 12  1  0
  8 13  1  0
 13 14  1  0
 14 15  1  6
 14 16  1  0
 16 17  1  0
M  RAD  1  16   2
M  END
>  <docking_score>  (1) 
-3.1539999999999999

$$$$

     RDKit          3D

 17 16  0  0  0  0  0  0  0  0999 V2000
    2.7063    6.2995    4.5353 C   0  0  0  0  0  0  0  0  0  0  0  0
    2.9446    7.5830    5.0620 O   0  0  0  0  0  0  0  0  0  0  0  0
    3.4119    8.5825    4.2346 C   0  0  0  0  0  0  0  0  0  0  0  0
    3.6867    9.8088    4.7113 C   0  0  0  0  0  0  0  0  0  0  0  0
    4.1711   10.8166    3.8108 C   0  0  0  0  0  0  0  0  0  0  0  0
    4.5786   11.6558    3.0525 C   0  0  0  0  0  0  0  0  0  0  0  0
    5.0869   12.6864    2.1476 C   0  0  0  0  0  0  0  0  0  0  0  0
    6.2442   13.3562    2.7996 C   0  0  1  0  0  0  0  0  0  0  0  0
    7.4839   13.4295    1.9758 C   0  0  0  0  0  0  0  0  0  0  0  0
    8.4122   14.4679    2.5219 C   0  0  0  0  0  0  0  0  0  0  0  0
    9.4893   14.0560    3.1884 C   0  0  0  0  0  0  0  0  0  0  0  0
   10.3575   15.0270    3.6993 O   0  0  0  0  0  0  0  0  0  0  0  0
    5.9241   14.6086    3.5352 C   0  0  0  0  0  0  0  0  0  0  0  0
    5.8575   14.4522    5.0157 C   0  0  2  0  0  0  0  0  0  0  0  0
    6.4954   13.2823    5.5312 N   0  0  0  0  0  0  0  0  0  0  0  0
    4.5222   14.7568    5.6044 C   0  0  0  0  0  3  0  0  0  0  0  0
    3.5296   14.1314    4.8759 F   0  0  0  0  0  0  0  0  0  0  0  0
  1  2  1  0
  2  3  1  0
  3  4  2  3
  4  5  1  0
  5  6  3  0
  6  7  1  0
  8  7  1  6
  8  9  1  0
  9 10  1  0
 10 11  2  3
 11 12  1  0
  8 13  1  0
 13 14  1  0
 14 15  1  6
 14 16  1  0
 16 17  1  0
M  RAD  1  16   2
M  END
>  <docking_score>  (2) 
-3.0190000000000001

$$$$

     RDKit          3D

 17 16  0  0  0  0  0  0  0  0999 V2000
   13.7910    0.3349   -4.3915 C   0  0  0  0  0  0  0  0  0  0  0  0
   13.3221   -0.9426   -4.7521 O   0  0  0  0  0  0  0  0  0  0  0  0
   14.2259   -1.9392   -5.0543 C   0  0  0  0  0  0  0  0  0  0  0  0
   15.4833   -1.9058   -4.5803 C   0  0  0  0  0  0  0  0  0  0  0  0
   16.3881   -2.9665   -4.9226 C   0  0  0  0  0  0  0  0  0  0  0  0
   17.1406   -3.8587   -5.2107 C   0  0  0  0  0  0  0  0  0  0  0  0
   18.0670   -4.9415   -5.5402 C   0  0  0  0  0  0  0  0  0  0  0  0
   18.7618   -5.3623   -4.2940 C   0  0  1  0  0  0  0  0  0  0  0  0
   18.5125   -6.7692   -3.8703 C   0  0  0  0  0  0  0  0  0  0  0  0
   18.5841   -7.6890   -5.0481 C   0  0  0  0  0  0  0  0  0  0  0  0
   17.5163   -8.4357   -5.3245 C   0  0  0  0  0  0  0  0  0  0  0  0
   17.5829   -9.2961   -6.4259 O   0  0  0  0  0  0  0  0  0  0  0  0
   20.1808   -4.9316   -4.1789 C   0  0  0  0  0  0  0  0  0  0  0  0
   20.3620   -3.5375   -3.6846 C   0  0  2  0  0  0  0  0  0  0  0  0
   21.0255   -2.6543   -4.5907 N   0  0  0  0  0  0  0  0  0  0  0  0
   20.8112   -3.4440   -2.2662 C   0  0  0  0  0  3  0  0  0  0  0  0
   20.1632   -4.3933   -1.5006 F   0  0  0  0  0  0  0  0  0  0  0  0
  1  2  1  0
  2  3  1  0
  3  4  2  3
  4  5  1  0
  5  6  3  0
  6  7  1  0
  8  7  1  6
  8  9  1  0
  9 10  1  0
 10 11  2  3
 11 12  1  0
  8 13  1  0
 13 14  1  0
 14 15  1  6
 14 16  1  0
 16 17  1  0
M  RAD  1  16   2
M  END
>  <docking_score>  (3) 
-2.9889999999999999

$$$$
