
     RDKit          3D

 40 43  0  0  0  0  0  0  0  0999 V2000
   19.1089   -6.5518   -5.6877 C   0  0  1  0  0  0  0  0  0  0  0  0
   18.1091   -5.5396   -6.1108 C   0  0  1  0  0  0  0  0  0  0  0  0
   18.8749   -4.3862   -6.7711 C   0  0  0  0  0  0  0  0  0  0  0  0
   17.0862   -6.0038   -7.0786 C   0  0  0  0  0  0  0  0  0  0  0  0
   16.2571   -4.7783   -7.4822 C   0  0  0  0  0  0  0  0  0  0  0  0
   16.2919   -3.7269   -6.3719 C   0  0  0  0  0  0  0  0  0  0  0  0
   16.5806   -2.3481   -6.9413 C   0  0  1  0  0  0  0  0  0  0  0  0
   15.3060   -1.9258   -7.6827 C   0  0  0  0  0  0  0  0  0  0  0  0
   16.7752   -1.4258   -5.7472 C   0  0  1  0  0  0  0  0  0  0  0  0
   17.5121   -0.1652   -6.1219 C   0  0  0  0  0  0  0  0  0  0  0  0
   18.9724   -0.3977   -6.4026 C   0  0  0  0  0  0  0  0  0  0  0  0
   19.8023   -0.4036   -5.1253 C   0  0  2  0  0  0  0  0  0  0  0  0
   20.9475    0.5805   -5.3665 C   0  0  0  0  0  0  0  0  0  0  0  0
   20.5013   -2.0189   -4.7706 S   0  0  0  0  0  0  0  0  0  0  0  0
   19.4595   -2.8761   -3.5829 C   0  0  0  0  0  0  0  0  0  0  0  0
   20.1468   -4.1349   -3.0413 C   0  0  1  0  0  0  0  0  0  0  0  0
   19.8068   -4.1484   -1.5434 C   0  0  0  0  0  3  0  0  0  0  0  0
   18.3417   -3.8420   -1.4308 C   0  0  0  0  0  0  0  0  0  0  0  0
   18.0838   -2.3551   -1.6336 C   0  0  0  0  0  0  0  0  0  0  0  0
   16.6214   -2.0661   -1.7037 C   0  0  2  0  0  0  0  0  0  0  0  0
   15.8702   -2.8262   -0.8176 O   0  0  0  0  0  0  0  0  0  0  0  0
   16.0472   -2.1950   -3.0954 C   0  0  0  0  0  0  0  0  0  0  0  0
   15.5939   -0.8542   -3.6400 C   0  0  0  0  0  0  0  0  0  0  0  0
   15.4349   -1.0203   -5.1495 C   0  0  2  0  0  0  0  0  0  0  0  0
   14.4167   -2.1177   -5.3559 C   0  0  0  0  0  0  0  0  0  0  0  0
   19.5545   -5.3696   -3.6302 C   0  0  0  0  0  0  0  0  0  0  0  0
   20.2104   -5.7494   -4.9656 C   0  0  1  0  0  0  0  0  0  0  0  0
   21.3241   -6.7271   -4.6049 C   0  0  0  0  0  0  0  0  0  0  0  0
   20.7837   -7.5536   -3.5940 O   0  0  0  0  0  0  0  0  0  0  0  0
   19.8267   -8.3422   -4.1857 C   0  0  0  0  0  0  0  0  0  0  0  0
   18.6177   -7.5267   -4.6593 C   0  0  2  0  0  0  0  0  0  0  0  0
   17.5916   -8.4785   -5.1391 C   0  0  1  0  0  0  0  0  0  0  0  0
   16.2261   -8.2649   -4.5720 C   0  0  0  0  0  0  0  0  0  0  0  0
   17.6288   -8.7997   -6.5871 C   0  0  0  0  0  0  0  0  0  0  0  0
   17.3898  -10.2441   -6.9137 C   0  0  0  0  0  3  0  0  0  0  0  0
   18.4007  -10.6321   -7.9956 C   0  0  0  0  0  0  0  0  0  0  0  0
   19.3072   -9.4793   -8.3465 C   0  0  0  0  0  3  0  0  0  0  0  0
   18.5569   -8.2373   -8.7178 C   0  0  0  0  0  0  0  0  0  0  0  0
   19.2257   -6.9769   -8.1616 C   0  0  0  0  0  3  0  0  0  0  0  0
   19.7831   -7.2793   -6.8080 C   0  0  0  0  0  3  0  0  0  0  0  0
  1  2  1  0
  2  3  1  6
  2  4  1  0
  4  5  1  0
  5  6  1  0
  6  7  1  0
  7  8  1  1
  7  9  1  0
  9 10  1  6
 10 11  1  0
 11 12  1  0
 12 13  1  6
 12 14  1  0
 14 15  1  0
 15 16  1  0
 16 17  1  1
 17 18  1  0
 18 19  1  0
 19 20  1  0
 20 21  1  1
 20 22  1  0
 22 23  1  0
 23 24  1  0
 24 25  1  1
 16 26  1  0
 27 26  1  1
 27 28  1  0
 28 29  1  0
 29 30  1  0
 31 30  1  6
 31 32  1  0
 32 33  1  6
 32 34  1  0
 34 35  1  0
 35 36  1  0
 36 37  1  0
 37 38  1  0
 38 39  1  0
 39 40  1  0
 27  1  1  0
 31  1  1  0
  1 40  1  6
 24  9  1  0
M  RAD  5  17   2  35   2  37   2  39   2  40   2
M  END
>  <docking_score>  (1) 
-3.3439999999999999

$$$$

     RDKit          3D

 40 43  0  0  0  0  0  0  0  0999 V2000
   16.6189   -6.2284   -6.0770 C   0  0  1  0  0  0  0  0  0  0  0  0
   17.3512   -5.7344   -4.8842 C   0  0  1  0  0  0  0  0  0  0  0  0
   16.3183   -5.1112   -3.9370 C   0  0  0  0  0  0  0  0  0  0  0  0
   18.0994   -6.7565   -4.1134 C   0  0  0  0  0  0  0  0  0  0  0  0
   18.6530   -6.0632   -2.8625 C   0  0  0  0  0  0  0  0  0  0  0  0
   18.8290   -4.5661   -3.1213 C   0  0  0  0  0  0  0  0  0  0  0  0
   18.2542   -3.7480   -1.9772 C   0  0  1  0  0  0  0  0  0  0  0  0
   19.2176   -3.9404   -0.7994 C   0  0  0  0  0  0  0  0  0  0  0  0
   18.3143   -2.2939   -2.4203 C   0  0  1  0  0  0  0  0  0  0  0  0
   17.3789   -1.4216   -1.6224 C   0  0  0  0  0  0  0  0  0  0  0  0
   15.9299   -1.6474   -1.9609 C   0  0  0  0  0  0  0  0  0  0  0  0
   15.5007   -0.8458   -3.1830 C   0  0  2  0  0  0  0  0  0  0  0  0
   14.2414   -0.0866   -2.7636 C   0  0  0  0  0  0  0  0  0  0  0  0
   15.0963   -1.8954   -4.5825 S   0  0  0  0  0  0  0  0  0  0  0  0
   16.5122   -1.9978   -5.6850 C   0  0  0  0  0  0  0  0  0  0  0  0
   16.1362   -2.6508   -7.0200 C   0  0  1  0  0  0  0  0  0  0  0  0
   16.8860   -1.8285   -8.0788 C   0  0  0  0  0  3  0  0  0  0  0  0
   18.2846   -1.6398   -7.5676 C   0  0  0  0  0  0  0  0  0  0  0  0
   18.3242   -0.5695   -6.4853 C   0  0  0  0  0  0  0  0  0  0  0  0
   19.6702   -0.4998   -5.8447 C   0  0  2  0  0  0  0  0  0  0  0  0
   20.7139   -0.6720   -6.7438 O   0  0  0  0  0  0  0  0  0  0  0  0
   19.8367   -1.4549   -4.6857 C   0  0  0  0  0  0  0  0  0  0  0  0
   19.9805   -0.7170   -3.3687 C   0  0  0  0  0  0  0  0  0  0  0  0
   19.7213   -1.7347   -2.2603 C   0  0  2  0  0  0  0  0  0  0  0  0
   20.7440   -2.8329   -2.4380 C   0  0  0  0  0  0  0  0  0  0  0  0
   16.6581   -4.0445   -7.1057 C   0  0  0  0  0  0  0  0  0  0  0  0
   15.6924   -5.0661   -6.4880 C   0  0  1  0  0  0  0  0  0  0  0  0
   14.8302   -5.5582   -7.6460 C   0  0  0  0  0  0  0  0  0  0  0  0
   15.7148   -5.6945   -8.7397 O   0  0  0  0  0  0  0  0  0  0  0  0
   16.5390   -6.7583   -8.4623 C   0  0  0  0  0  0  0  0  0  0  0  0
   17.4763   -6.4711   -7.2833 C   0  0  2  0  0  0  0  0  0  0  0  0
   18.4146   -7.6091   -7.1655 C   0  0  1  0  0  0  0  0  0  0  0  0
   19.8562   -7.2256   -7.0848 C   0  0  0  0  0  0  0  0  0  0  0  0
   18.0012   -8.7007   -6.2496 C   0  0  0  0  0  0  0  0  0  0  0  0
   18.2814  -10.0837   -6.7585 C   0  0  0  0  0  3  0  0  0  0  0  0
   17.0497  -10.9356   -6.4422 C   0  0  0  0  0  0  0  0  0  0  0  0
   15.9703  -10.1228   -5.7731 C   0  0  0  0  0  3  0  0  0  0  0  0
   16.4562   -9.3907   -4.5602 C   0  0  0  0  0  0  0  0  0  0  0  0
   15.8495   -7.9884   -4.4568 C   0  0  0  0  0  3  0  0  0  0  0  0
   15.7315   -7.4074   -5.8289 C   0  0  0  0  0  3  0  0  0  0  0  0
  1  2  1  0
  2  3  1  1
  2  4  1  0
  4  5  1  0
  5  6  1  0
  6  7  1  0
  7  8  1  1
  7  9  1  0
  9 10  1  1
 10 11  1  0
 11 12  1  0
 12 13  1  1
 12 14  1  0
 14 15  1  0
 15 16  1  0
 16 17  1  6
 17 18  1  0
 18 19  1  0
 19 20  1  0
 20 21  1  6
 20 22  1  0
 22 23  1  0
 23 24  1  0
 24 25  1  6
 16 26  1  0
 27 26  1  6
 27 28  1  0
 28 29  1  0
 29 30  1  0
 31 30  1  6
 31 32  1  0
 32 33  1  1
 32 34  1  0
 34 35  1  0
 35 36  1  0
 36 37  1  0
 37 38  1  0
 38 39  1  0
 39 40  1  0
 27  1  1  0
 31  1  1  0
  1 40  1  1
 24  9  1  0
M  RAD  5  17   2  35   2  37   2  39   2  40   2
M  END
>  <docking_score>  (2) 
-2.1869999999999998

$$$$
