
     RDKit          3D

 33 34  0  0  0  0  0  0  0  0999 V2000
   17.6552   -3.3797   -1.3212 C   0  0  0  0  0  0  0  0  0  0  0  0
   19.0480   -3.8549   -1.7288 C   0  0  0  0  0  3  0  0  0  0  0  0
   18.9732   -4.2127   -3.1714 C   0  0  2  0  0  0  0  0  0  0  0  0
   20.1958   -5.0060   -3.6030 C   0  0  2  0  0  0  0  0  0  0  0  0
   20.5743   -5.7946   -2.5151 O   0  0  0  0  0  0  0  0  0  0  0  0
   21.3748   -4.0789   -3.8677 C   0  0  0  0  0  0  0  0  0  0  0  0
   21.1318   -3.2225   -4.9223 O   0  0  0  0  0  0  0  0  0  0  0  0
   20.8628   -1.9481   -4.4369 C   0  0  0  0  0  3  0  0  0  0  0  0
   19.5009   -1.8488   -3.7823 C   0  0  1  0  0  0  0  0  0  0  0  0
   18.8320   -0.7604   -4.3617 O   0  0  0  0  0  0  0  0  0  0  0  0
   18.6760   -3.0377   -4.0201 C   0  0  1  0  0  0  0  0  0  0  0  0
   18.4509   -3.3358   -5.3893 N   0  0  0  0  0  0  0  0  0  0  0  0
   16.9116   -3.3049   -5.6209 C   0  0  1  0  0  0  0  0  0  0  0  0
   16.5722   -2.2361   -6.5277 C   0  0  0  0  0  0  0  0  0  0  0  0
   15.0571   -2.2178   -6.5920 C   0  0  2  0  0  0  0  0  0  0  0  0
   14.4963   -2.3636   -5.3189 O   0  0  0  0  0  0  0  0  0  0  0  0
   14.4796   -3.1718   -7.5815 C   0  0  1  0  0  0  0  0  0  0  0  0
   15.2378   -3.1626   -8.7396 O   0  0  0  0  0  0  0  0  0  0  0  0
   14.3210   -4.5637   -7.0585 C   0  0  1  0  0  0  0  0  0  0  0  0
   14.7150   -5.5266   -7.9807 O   0  0  0  0  0  0  0  0  0  0  0  0
   15.0902   -4.7880   -5.7925 C   0  0  1  0  0  0  0  0  0  0  0  0
   14.7851   -6.0128   -5.2946 O   0  0  0  0  0  0  0  0  0  0  0  0
   16.6598   -4.7690   -6.0170 C   0  0  1  0  0  0  0  0  0  0  0  0
   16.9433   -4.6862   -7.4248 O   0  0  0  0  0  0  0  0  0  0  0  0
   17.6604   -5.8854   -7.4359 O   0  0  0  0  0  0  0  0  0  0  0  0
   17.7417   -6.4511   -6.3784 O   0  0  0  0  0  0  0  0  0  0  0  0
   18.5375   -7.6319   -6.5643 C   0  0  2  0  0  0  0  0  0  0  0  0
   19.0394   -7.5746   -7.8921 O   0  0  0  0  0  0  0  0  0  0  0  0
   17.3342   -8.4858   -6.8993 O   0  0  0  0  0  0  0  0  0  0  0  0
   17.7346   -9.6880   -7.1956 O   0  0  0  0  0  0  0  0  0  0  0  0
   17.2686  -10.6135   -6.3143 C   0  0  0  0  0  3  0  0  0  0  0  0
   16.6725  -11.7530   -7.1524 C   0  0  0  0  0  3  0  0  0  0  0  0
   17.9513  -12.4824   -8.2294 S   0  0  0  0  0  0  0  0  0  0  0  0
  1  2  1  0
  3  2  1  1
  3  4  1  0
  4  5  1  1
  4  6  1  0
  6  7  1  0
  7  8  1  0
  8  9  1  0
  9 10  1  6
  9 11  1  0
 11 12  1  6
 13 12  1  6
 13 14  1  0
 14 15  1  0
 15 16  1  1
 15 17  1  0
 17 18  1  6
 17 19  1  0
 19 20  1  6
 19 21  1  0
 21 22  1  6
 21 23  1  0
 23 24  1  6
 24 25  1  0
 25 26  1  0
 26 27  1  0
 27 28  1  6
 27 29  1  0
 29 30  1  0
 30 31  1  0
 31 32  1  0
 32 33  1  0
 11  3  1  0
 23 13  1  0
M  RAD  4   2   2   8   2  31   2  32   2
M  END
>  <docking_score>  (1) 
-3.1190000000000002

$$$$

     RDKit          3D

 33 34  0  0  0  0  0  0  0  0999 V2000
    6.7481   15.2578    3.1561 C   0  0  0  0  0  0  0  0  0  0  0  0
    6.4811   13.7853    2.8525 C   0  0  0  0  0  3  0  0  0  0  0  0
    6.4378   13.0791    4.1617 C   0  0  2  0  0  0  0  0  0  0  0  0
    7.3247   11.8448    4.1478 C   0  0  2  0  0  0  0  0  0  0  0  0
    8.4236   12.1422    3.3397 O   0  0  0  0  0  0  0  0  0  0  0  0
    6.6180   10.6800    3.4671 C   0  0  0  0  0  0  0  0  0  0  0  0
    5.4908   10.2846    4.1583 O   0  0  0  0  0  0  0  0  0  0  0  0
    4.3546   10.7308    3.4936 C   0  0  0  0  0  3  0  0  0  0  0  0
    4.1527   12.2260    3.6229 C   0  0  1  0  0  0  0  0  0  0  0  0
    2.8411   12.4380    4.0729 O   0  0  0  0  0  0  0  0  0  0  0  0
    5.0506   12.8300    4.6124 C   0  0  1  0  0  0  0  0  0  0  0  0
    4.9392   12.2879    5.9193 N   0  0  0  0  0  0  0  0  0  0  0  0
    5.0621   13.4726    6.9221 C   0  0  1  0  0  0  0  0  0  0  0  0
    4.1827   14.5449    6.5264 C   0  0  0  0  0  0  0  0  0  0  0  0
    4.4635   15.6825    7.4892 C   0  0  2  0  0  0  0  0  0  0  0  0
    5.8378   15.8413    7.6955 O   0  0  0  0  0  0  0  0  0  0  0  0
    3.7015   15.5982    8.7678 C   0  0  1  0  0  0  0  0  0  0  0  0
    2.4037   15.1889    8.5144 O   0  0  0  0  0  0  0  0  0  0  0  0
    4.3444   14.7264    9.7987 C   0  0  1  0  0  0  0  0  0  0  0  0
    3.4275   13.9111   10.4526 O   0  0  0  0  0  0  0  0  0  0  0  0
    5.4149   13.8529    9.2193 C   0  0  1  0  0  0  0  0  0  0  0  0
    6.0548   13.2032   10.2241 O   0  0  0  0  0  0  0  0  0  0  0  0
    4.8386   12.7357    8.2528 C   0  0  1  0  0  0  0  0  0  0  0  0
    3.4010   12.7563    8.2971 O   0  0  0  0  0  0  0  0  0  0  0  0
    3.2988   11.3631    8.3298 O   0  0  0  0  0  0  0  0  0  0  0  0
    2.7059   10.9085    9.2714 O   0  0  0  0  0  0  0  0  0  0  0  0
    3.2171    9.5909    9.5265 C   0  0  2  0  0  0  0  0  0  0  0  0
    2.3371    8.6846    8.8767 O   0  0  0  0  0  0  0  0  0  0  0  0
    2.5433    9.5055   10.8785 O   0  0  0  0  0  0  0  0  0  0  0  0
    3.4267    9.1723   11.7740 O   0  0  0  0  0  0  0  0  0  0  0  0
    3.6346   10.1649   12.6807 C   0  0  0  0  0  3  0  0  0  0  0  0
    2.8428    9.7803   13.9382 C   0  0  0  0  0  3  0  0  0  0  0  0
    2.8283    7.9684   14.1474 S   0  0  0  0  0  0  0  0  0  0  0  0
  1  2  1  0
  3  2  1  6
  3  4  1  0
  4  5  1  6
  4  6  1  0
  6  7  1  0
  7  8  1  0
  8  9  1  0
  9 10  1  1
  9 11  1  0
 11 12  1  1
 13 12  1  6
 13 14  1  0
 14 15  1  0
 15 16  1  1
 15 17  1  0
 17 18  1  6
 17 19  1  0
 19 20  1  6
 19 21  1  0
 21 22  1  1
 21 23  1  0
 23 24  1  1
 24 25  1  0
 25 26  1  0
 26 27  1  0
 27 28  1  6
 27 29  1  0
 29 30  1  0
 30 31  1  0
 31 32  1  0
 32 33  1  0
 11  3  1  0
 23 13  1  0
M  RAD  4   2   2   8   2  31   2  32   2
M  END
>  <docking_score>  (2) 
-2.8799999999999999

$$$$

     RDKit          3D

 33 34  0  0  0  0  0  0  0  0999 V2000
   19.4947   -0.8169   -2.3324 C   0  0  0  0  0  0  0  0  0  0  0  0
   18.3836   -1.7874   -1.9382 C   0  0  0  0  0  3  0  0  0  0  0  0
   18.0052   -2.5290   -3.1717 C   0  0  2  0  0  0  0  0  0  0  0  0
   16.9766   -3.6064   -2.8690 C   0  0  2  0  0  0  0  0  0  0  0  0
   16.1614   -3.1156   -1.8475 O   0  0  0  0  0  0  0  0  0  0  0  0
   17.6479   -4.8482   -2.2975 C   0  0  0  0  0  0  0  0  0  0  0  0
   18.5041   -5.4369   -3.2059 O   0  0  0  0  0  0  0  0  0  0  0  0
   19.8201   -5.1572   -2.8568 C   0  0  0  0  0  3  0  0  0  0  0  0
   20.2020   -3.7172   -3.1280 C   0  0  1  0  0  0  0  0  0  0  0  0
   21.3824   -3.7286   -3.8857 O   0  0  0  0  0  0  0  0  0  0  0  0
   19.1903   -3.0075   -3.9173 C   0  0  1  0  0  0  0  0  0  0  0  0
   18.9018   -3.5979   -5.1753 N   0  0  0  0  0  0  0  0  0  0  0  0
   17.4383   -3.2122   -5.5410 C   0  0  1  0  0  0  0  0  0  0  0  0
   17.4265   -1.9760   -6.2833 C   0  0  0  0  0  0  0  0  0  0  0  0
   15.9632   -1.6319   -6.4846 C   0  0  2  0  0  0  0  0  0  0  0  0
   15.2299   -1.8407   -5.3119 O   0  0  0  0  0  0  0  0  0  0  0  0
   15.3421   -2.2898   -7.6696 C   0  0  1  0  0  0  0  0  0  0  0  0
   16.2269   -2.2712   -8.7339 O   0  0  0  0  0  0  0  0  0  0  0  0
   14.8553   -3.6786   -7.4044 C   0  0  1  0  0  0  0  0  0  0  0  0
   15.1697   -4.5581   -8.4342 O   0  0  0  0  0  0  0  0  0  0  0  0
   15.4024   -4.2404   -6.1278 C   0  0  1  0  0  0  0  0  0  0  0  0
   14.8082   -5.4334   -5.8730 O   0  0  0  0  0  0  0  0  0  0  0  0
   16.9621   -4.5178   -6.1986 C   0  0  1  0  0  0  0  0  0  0  0  0
   17.4303   -4.2924   -7.5399 O   0  0  0  0  0  0  0  0  0  0  0  0
   18.0454   -5.5442   -7.6247 O   0  0  0  0  0  0  0  0  0  0  0  0
   18.8935   -5.7623   -6.8013 O   0  0  0  0  0  0  0  0  0  0  0  0
   19.9979   -6.4042   -7.4577 C   0  0  2  0  0  0  0  0  0  0  0  0
   20.5736   -5.4331   -8.3200 O   0  0  0  0  0  0  0  0  0  0  0  0
   19.1104   -7.0287   -8.5120 O   0  0  0  0  0  0  0  0  0  0  0  0
   19.3826   -8.2982   -8.6000 O   0  0  0  0  0  0  0  0  0  0  0  0
   19.1655   -8.9498   -7.4258 C   0  0  0  0  0  3  0  0  0  0  0  0
   17.6430   -9.0499   -7.2572 C   0  0  0  0  0  3  0  0  0  0  0  0
   17.2304   -9.6837   -5.5973 S   0  0  0  0  0  0  0  0  0  0  0  0
  1  2  1  0
  3  2  1  1
  3  4  1  0
  4  5  1  1
  4  6  1  0
  6  7  1  0
  7  8  1  0
  8  9  1  0
  9 10  1  6
  9 11  1  0
 11 12  1  6
 13 12  1  6
 13 14  1  0
 14 15  1  0
 15 16  1  1
 15 17  1  0
 17 18  1  6
 17 19  1  0
 19 20  1  6
 19 21  1  0
 21 22  1  6
 21 23  1  0
 23 24  1  6
 24 25  1  0
 25 26  1  0
 26 27  1  0
 27 28  1  6
 27 29  1  0
 29 30  1  0
 30 31  1  0
 31 32  1  0
 32 33  1  0
 11  3  1  0
 23 13  1  0
M  RAD  4   2   2   8   2  31   2  32   2
M  END
>  <docking_score>  (3) 
-2.7610000000000001

$$$$
