
     RDKit          3D

 16 15  0  0  0  0  0  0  0  0999 V2000
   10.1533   14.8438    2.8427 C   0  0  0  0  0  0  0  0  0  0  0  0
    9.1101   14.7117    1.8971 O   0  0  0  0  0  0  0  0  0  0  0  0
    7.8279   14.3208    2.0910 C   0  0  0  0  0  0  0  0  0  0  0  0
    7.2597   14.6474    3.2801 C   0  0  0  0  0  0  0  0  0  0  0  0
    5.7830   14.1484    3.3111 C   0  0  0  0  0  0  0  0  0  0  0  0
    5.6150   12.8795    3.0914 C   0  0  0  0  0  0  0  0  0  0  0  0
    4.4198   12.0835    3.0897 C   0  0  0  0  0  0  0  0  0  0  0  0
    3.1235   12.1889    2.5049 C   0  0  0  0  0  0  0  0  0  0  0  0
    4.6205   10.9562    3.8369 C   0  0  0  0  0  0  0  0  0  0  0  0
    4.5002    9.8773    4.5302 C   0  0  0  0  0  0  0  0  0  0  0  0
    3.7552   10.0988    5.8364 C   0  0  0  0  0  0  0  0  0  0  0  0
    4.8318    9.7662    6.7484 O   0  0  0  0  0  0  0  0  0  0  0  0
    3.9776    9.8885    8.2936 S   0  0  0  0  0  0  0  0  0  0  0  0
    3.7850    8.0495    8.8010 C   0  0  0  0  0  0  0  0  0  0  0  0
    4.9258    8.6950    3.8998 C   0  0  0  0  0  0  0  0  0  0  0  0
    4.8300    8.6289    2.6328 O   0  0  0  0  0  0  0  0  0  0  0  0
  1  2  1  0
  2  3  1  0
  3  4  2  3
  4  5  1  0
  5  6  2  3
  6  7  1  0
  7  8  1  0
  7  9  2  0
  9 10  2  0
 10 11  1  0
 11 12  1  0
 12 13  1  0
 13 14  1  0
 10 15  1  0
 15 16  2  0
M  END
>  <docking_score>  (1) 
-3.121

$$$$

     RDKit          3D

 16 15  0  0  0  0  0  0  0  0999 V2000
   12.7386   -5.5159   -8.5770 C   0  0  0  0  0  0  0  0  0  0  0  0
   14.0478   -4.9845   -8.5194 O   0  0  0  0  0  0  0  0  0  0  0  0
   14.6712   -4.3628   -7.4902 C   0  0  0  0  0  0  0  0  0  0  0  0
   15.8439   -4.9011   -7.0676 C   0  0  0  0  0  0  0  0  0  0  0  0
   16.4288   -4.0402   -5.9068 C   0  0  0  0  0  0  0  0  0  0  0  0
   15.5838   -3.2547   -5.3103 C   0  0  0  0  0  0  0  0  0  0  0  0
   15.7610   -2.3711   -4.1923 C   0  0  0  0  0  0  0  0  0  0  0  0
   14.9910   -1.3448   -3.5699 C   0  0  0  0  0  0  0  0  0  0  0  0
   16.9731   -2.6114   -3.6073 C   0  0  0  0  0  0  0  0  0  0  0  0
   18.0629   -2.5632   -2.9224 C   0  0  0  0  0  0  0  0  0  0  0  0
   18.9668   -1.4139   -3.3372 C   0  0  0  0  0  0  0  0  0  0  0  0
   20.0924   -2.1954   -3.8103 O   0  0  0  0  0  0  0  0  0  0  0  0
   20.5969   -1.2081   -5.1897 S   0  0  0  0  0  0  0  0  0  0  0  0
   19.0535   -1.2733   -6.3255 C   0  0  0  0  0  0  0  0  0  0  0  0
   18.1450   -3.4575   -1.8407 C   0  0  0  0  0  0  0  0  0  0  0  0
   18.8750   -4.4906   -1.9771 O   0  0  0  0  0  0  0  0  0  0  0  0
  1  2  1  0
  2  3  1  0
  3  4  2  3
  4  5  1  0
  5  6  2  3
  6  7  1  0
  7  8  1  0
  7  9  2  0
  9 10  2  0
 10 11  1  0
 11 12  1  0
 12 13  1  0
 13 14  1  0
 10 15  1  0
 15 16  2  0
M  END
>  <docking_score>  (2) 
-3.113

$$$$

     RDKit          3D

 16 15  0  0  0  0  0  0  0  0999 V2000
   21.3813    0.9108   -4.4840 C   0  0  0  0  0  0  0  0  0  0  0  0
   21.0838   -0.4707   -4.5350 O   0  0  0  0  0  0  0  0  0  0  0  0
   19.8972   -1.0793   -4.7721 C   0  0  0  0  0  0  0  0  0  0  0  0
   18.9225   -0.3237   -5.3398 C   0  0  0  0  0  0  0  0  0  0  0  0
   17.6486   -1.1936   -5.5663 C   0  0  0  0  0  0  0  0  0  0  0  0
   16.5192   -0.5534   -5.5333 C   0  0  0  0  0  0  0  0  0  0  0  0
   15.1768   -1.0187   -5.7425 C   0  0  0  0  0  0  0  0  0  0  0  0
   13.8696   -0.4730   -5.5782 C   0  0  0  0  0  0  0  0  0  0  0  0
   15.2064   -2.2983   -6.2231 C   0  0  0  0  0  0  0  0  0  0  0  0
   14.9353   -3.5017   -6.5940 C   0  0  0  0  0  0  0  0  0  0  0  0
   14.5347   -4.3976   -5.4335 C   0  0  0  0  0  0  0  0  0  0  0  0
   15.7362   -4.2529   -4.6352 O   0  0  0  0  0  0  0  0  0  0  0  0
   16.0506   -5.9488   -4.2387 S   0  0  0  0  0  0  0  0  0  0  0  0
   16.8776   -6.5972   -5.8424 C   0  0  0  0  0  0  0  0  0  0  0  0
   14.9046   -3.7211   -7.9823 C   0  0  0  0  0  0  0  0  0  0  0  0
   14.7313   -2.7137   -8.7400 O   0  0  0  0  0  0  0  0  0  0  0  0
  1  2  1  0
  2  3  1  0
  3  4  2  3
  4  5  1  0
  5  6  2  3
  6  7  1  0
  7  8  1  0
  7  9  2  0
  9 10  2  0
 10 11  1  0
 11 12  1  0
 12 13  1  0
 13 14  1  0
 10 15  1  0
 15 16  2  0
M  END
>  <docking_score>  (3) 
-3.0640000000000001

$$$$
