
     RDKit          3D

 36 36  0  0  0  0  0  0  0  0999 V2000
   17.8830   -0.6000   -5.5138 O   0  0  0  0  0  0  0  0  0  0  0  0
   18.9047   -0.8926   -6.3026 O   0  0  0  0  0  0  0  0  0  0  0  0
   19.9794   -0.1196   -5.8730 C   0  0  0  0  0  3  0  0  0  0  0  0
   20.1320   -0.1576   -4.4920 O   0  0  0  0  0  0  0  0  0  0  0  0
   19.7493   -1.4161   -4.0620 C   0  0  2  0  0  0  0  0  0  0  0  0
   19.9335   -1.5893   -2.5846 C   0  0  0  0  0  0  0  0  0  0  0  0
   20.5407   -2.4345   -4.8625 C   0  0  0  0  0  3  0  0  0  0  0  0
   19.6727   -3.5341   -5.3452 C   0  0  1  0  0  0  0  0  0  0  0  0
   20.1978   -4.9175   -5.2353 C   0  0  0  0  0  3  0  0  0  0  0  0
   20.5654   -5.5785   -6.5139 C   0  0  0  0  0  0  0  0  0  0  0  0
   19.3948   -6.1827   -7.2677 C   0  0  2  0  0  0  0  0  0  0  0  0
   18.2402   -6.3242   -6.2692 C   0  0  0  0  0  0  0  0  0  0  0  0
   17.0095   -6.1433   -6.8857 O   0  0  0  0  0  0  0  0  0  0  0  0
   16.0124   -6.0952   -5.9251 C   0  0  0  0  0  0  0  0  0  0  0  0
   19.7163   -7.6101   -7.6959 C   0  0  0  0  0  0  0  0  0  0  0  0
   18.5890   -8.2172   -8.1667 O   0  0  0  0  0  0  0  0  0  0  0  0
   18.7450   -9.5393   -8.4976 C   0  0  0  0  0  3  0  0  0  0  0  0
   17.7888  -10.4567   -7.8023 C   0  0  2  0  0  0  0  0  0  0  0  0
   18.0777  -10.4380   -6.4393 O   0  0  0  0  0  0  0  0  0  0  0  0
   17.2452   -9.5529   -5.7921 C   0  0  0  0  0  0  0  0  0  0  0  0
   16.1527  -10.2318   -5.2903 O   0  0  0  0  0  0  0  0  0  0  0  0
   15.3801   -9.4720   -4.4318 C   0  0  0  0  0  2  0  0  0  0  0  0
   17.8983  -11.8839   -8.2734 C   0  0  0  0  0  3  0  0  0  0  0  0
   19.2836  -12.2067   -8.7393 C   0  0  0  0  0  3  0  0  0  0  0  0
   20.1685  -10.9687   -8.6059 C   0  0  0  0  0  2  0  0  0  0  0  0
   18.2896   -3.3903   -4.7803 C   0  0  0  0  0  0  0  0  0  0  0  0
   17.4777   -2.8562   -5.7792 O   0  0  0  0  0  0  0  0  0  0  0  0
   16.9616   -1.6215   -5.4257 C   0  0  2  0  0  0  0  0  0  0  0  0
   15.7330   -1.3771   -6.2633 C   0  0  1  0  0  0  0  0  0  0  0  0
   15.5079   -2.6154   -7.1196 C   0  0  0  0  0  2  0  0  0  0  0  0
   14.5034   -1.1121   -5.4223 C   0  0  1  0  0  0  0  0  0  0  0  0
   14.6116   -1.9307   -4.1540 C   0  0  0  0  0  0  0  0  0  0  0  0
   15.0547   -1.0314   -3.0194 C   0  0  0  0  0  3  0  0  0  0  0  0
   16.0041   -1.6933   -2.2223 O   0  0  0  0  0  0  0  0  0  0  0  0
   14.5735    0.3552   -5.0010 C   0  0  0  0  0  3  0  0  0  0  0  0
   15.1716    1.1315   -5.9908 O   0  0  0  0  0  1  0  0  0  0  0  0
  1  2  1  0
  2  3  1  0
  3  4  1  0
  4  5  1  0
  5  6  1  1
  5  7  1  0
  7  8  1  0
  8  9  1  1
  9 10  1  0
 11 10  1  1
 11 12  1  0
 12 13  1  0
 13 14  1  0
 11 15  1  0
 15 16  1  0
 16 17  1  0
 18 17  1  6
 18 19  1  0
 19 20  1  0
 20 21  1  0
 21 22  1  0
 18 23  1  0
 23 24  1  0
 24 25  1  0
  8 26  1  0
 26 27  1  0
 28 27  1  6
 28 29  1  0
 29 30  1  1
 29 31  1  0
 31 32  1  1
 32 33  1  0
 33 34  1  0
 31 35  1  0
 35 36  1  0
 28  1  1  0
M  RAD  8   3   2   7   2   9   2  17   2  22   3  23   2  24   2  25   3
M  CHG  1  36  -1
M  RAD  3  30   3  33   2  35   2
M  END
>  <docking_score>  (1) 
-1.734

$$$$

     RDKit          3D

 36 36  0  0  0  0  0  0  0  0999 V2000
   16.3013   -1.2737   -5.3435 O   0  0  0  0  0  0  0  0  0  0  0  0
   16.3474   -2.4939   -5.8539 O   0  0  0  0  0  0  0  0  0  0  0  0
   17.3180   -2.4770   -6.8511 C   0  0  0  0  0  3  0  0  0  0  0  0
   18.4869   -1.8522   -6.4327 O   0  0  0  0  0  0  0  0  0  0  0  0
   18.6427   -2.1144   -5.0828 C   0  0  2  0  0  0  0  0  0  0  0  0
   19.9131   -1.5354   -4.5371 C   0  0  0  0  0  0  0  0  0  0  0  0
   18.5712   -3.6191   -4.8965 C   0  0  0  0  0  3  0  0  0  0  0  0
   17.7058   -3.9805   -3.7494 C   0  0  1  0  0  0  0  0  0  0  0  0
   18.1909   -5.0445   -2.8361 C   0  0  0  0  0  3  0  0  0  0  0  0
   18.7501   -6.2571   -3.4871 C   0  0  0  0  0  0  0  0  0  0  0  0
   20.1449   -6.6332   -3.0215 C   0  0  2  0  0  0  0  0  0  0  0  0
   20.9870   -5.3524   -3.0396 C   0  0  0  0  0  0  0  0  0  0  0  0
   21.2240   -4.8813   -1.7553 O   0  0  0  0  0  0  0  0  0  0  0  0
   21.3418   -3.5011   -1.7822 C   0  0  0  0  0  0  0  0  0  0  0  0
   20.8149   -7.5540   -4.0351 C   0  0  0  0  0  0  0  0  0  0  0  0
   20.7079   -7.0211   -5.2863 O   0  0  0  0  0  0  0  0  0  0  0  0
   20.8437   -7.9256   -6.3086 C   0  0  0  0  0  3  0  0  0  0  0  0
   19.5441   -8.3767   -6.8977 C   0  0  2  0  0  0  0  0  0  0  0  0
   19.1978   -7.4950   -7.9196 O   0  0  0  0  0  0  0  0  0  0  0  0
   19.1914   -6.2023   -7.4461 C   0  0  0  0  0  0  0  0  0  0  0  0
   17.9833   -5.6070   -7.7500 O   0  0  0  0  0  0  0  0  0  0  0  0
   17.2413   -6.3121   -8.6793 C   0  0  0  0  0  2  0  0  0  0  0  0
   18.4174   -8.3819   -5.8969 C   0  0  0  0  0  3  0  0  0  0  0  0
   17.2202   -9.1142   -6.4173 C   0  0  0  0  0  3  0  0  0  0  0  0
   16.9071  -10.2963   -5.5018 C   0  0  0  0  0  2  0  0  0  0  0  0
   17.2662   -2.7442   -3.0206 C   0  0  0  0  0  0  0  0  0  0  0  0
   15.9538   -2.4719   -3.4022 O   0  0  0  0  0  0  0  0  0  0  0  0
   15.8411   -1.2509   -4.0443 C   0  0  2  0  0  0  0  0  0  0  0  0
   14.4061   -0.8036   -3.9381 C   0  0  1  0  0  0  0  0  0  0  0  0
   14.4004    0.7185   -3.9175 C   0  0  0  0  0  2  0  0  0  0  0  0
   13.5597   -1.2980   -5.0907 C   0  0  1  0  0  0  0  0  0  0  0  0
   12.1797   -0.6904   -4.9597 C   0  0  0  0  0  0  0  0  0  0  0  0
   11.6941   -0.8647   -3.5362 C   0  0  0  0  0  3  0  0  0  0  0  0
   10.3319   -0.5311   -3.4474 O   0  0  0  0  0  0  0  0  0  0  0  0
   14.1738   -0.7137   -6.3623 C   0  0  0  0  0  3  0  0  0  0  0  0
   13.7245    0.5860   -6.5830 O   0  0  0  0  0  1  0  0  0  0  0  0
  1  2  1  0
  2  3  1  0
  3  4  1  0
  4  5  1  0
  5  6  1  6
  5  7  1  0
  7  8  1  0
  8  9  1  1
  9 10  1  0
 11 10  1  6
 11 12  1  0
 12 13  1  0
 13 14  1  0
 11 15  1  0
 15 16  1  0
 16 17  1  0
 18 17  1  1
 18 19  1  0
 19 20  1  0
 20 21  1  0
 21 22  1  0
 18 23  1  0
 23 24  1  0
 24 25  1  0
  8 26  1  0
 26 27  1  0
 28 27  1  6
 28 29  1  0
 29 30  1  6
 29 31  1  0
 31 32  1  1
 32 33  1  0
 33 34  1  0
 31 35  1  0
 35 36  1  0
 28  1  1  0
M  RAD  8   3   2   7   2   9   2  17   2  22   3  23   2  24   2  25   3
M  CHG  1  36  -1
M  RAD  3  30   3  33   2  35   2
M  END
>  <docking_score>  (2) 
-1.0169999999999999

$$$$
