
     RDKit          3D

 24 23  0  0  0  0  0  0  0  0999 V2000
   19.4042   -2.5886   -7.6474 C   0  0  0  0  0  0  0  0  0  0  0  0
   19.4590   -3.9753   -7.7186 O   0  0  0  0  0  0  0  0  0  0  0  0
   20.1341   -4.5395   -6.6521 C   0  0  0  0  0  3  0  0  0  0  0  0
   19.2950   -4.4538   -5.4117 C   0  0  0  0  0  3  0  0  0  0  0  0
   18.7728   -5.8096   -5.0492 C   0  0  2  0  0  0  0  0  0  0  0  0
   17.5127   -5.7270   -4.2131 C   0  0  0  0  0  0  0  0  0  0  0  0
   17.7977   -5.2118   -2.8194 C   0  0  0  0  0  3  0  0  0  0  0  0
   16.6199   -4.9918   -2.0935 O   0  0  0  0  0  0  0  0  0  0  0  0
   16.7198   -3.7302   -1.5130 C   0  0  0  0  0  3  0  0  0  0  0  0
   16.4447   -2.6746   -2.5487 C   0  0  0  0  0  3  0  0  0  0  0  0
   16.1555   -1.4876   -1.8662 F   0  0  0  0  0  0  0  0  0  0  0  0
   19.7889   -6.6159   -4.2774 C   0  0  0  0  0  0  0  0  0  0  0  0
   19.7247   -8.0361   -4.7965 C   0  0  0  0  0  3  0  0  0  0  0  0
   19.0419   -8.0463   -6.0122 O   0  0  0  0  0  0  0  0  0  0  0  0
   19.9721   -8.3109   -7.0154 C   0  0  0  0  0  3  0  0  0  0  0  0
   19.4941   -7.6756   -8.3016 C   0  0  0  0  0  0  0  0  0  0  0  0
   18.0370   -7.9183   -8.5597 C   0  0  0  0  0  3  0  0  0  0  0  0
   17.3556   -6.5821   -8.7322 C   0  0  0  0  0  3  0  0  0  0  0  0
   16.3460   -6.3713   -7.6118 C   0  0  0  0  0  0  0  0  0  0  0  0
   15.3321   -5.3414   -8.0407 C   0  0  0  0  0  3  0  0  0  0  0  0
   15.5284   -4.1093   -7.2163 C   0  0  1  0  0  0  0  0  0  0  0  0
   15.5447   -2.8378   -8.0094 C   0  0  0  0  0  2  0  0  0  0  0  0
   14.5891   -4.0539   -6.0298 C   0  0  0  0  0  3  0  0  0  0  0  0
   13.4888   -5.0725   -6.1557 C   0  0  0  0  0  0  0  0  0  0  0  0
  1  2  1  0
  2  3  1  0
  3  4  1  0
  5  4  1  1
  5  6  1  0
  6  7  1  0
  7  8  1  0
  8  9  1  0
  9 10  1  0
 10 11  1  0
  5 12  1  0
 12 13  1  0
 13 14  1  0
 14 15  1  0
 15 16  1  0
 16 17  1  0
 17 18  1  0
 18 19  1  0
 19 20  1  0
 20 21  1  0
 21 22  1  6
 21 23  1  0
 23 24  1  0
M  RAD  8   3   2   4   2   7   2   9   2  10   2  13   2  15   2  17   2
M  RAD  4  18   2  20   2  22   3  23   2
M  END
>  <docking_score>  (1) 
-2.621

$$$$

     RDKit          3D

 24 23  0  0  0  0  0  0  0  0999 V2000
    7.6928   11.8130    3.1380 C   0  0  0  0  0  0  0  0  0  0  0  0
    7.0960   12.3133    1.9871 O   0  0  0  0  0  0  0  0  0  0  0  0
    6.0530   13.1792    2.2584 C   0  0  0  0  0  3  0  0  0  0  0  0
    4.7535   12.4300    2.2635 C   0  0  0  0  0  3  0  0  0  0  0  0
    4.0426   12.6417    3.5642 C   0  0  2  0  0  0  0  0  0  0  0  0
    4.4624   13.9323    4.2364 C   0  0  0  0  0  0  0  0  0  0  0  0
    4.5371   13.7825    5.7401 C   0  0  0  0  0  3  0  0  0  0  0  0
    5.2739   14.8169    6.3314 O   0  0  0  0  0  0  0  0  0  0  0  0
    6.5109   14.2905    6.6940 C   0  0  0  0  0  3  0  0  0  0  0  0
    7.6098   15.1243    6.0942 C   0  0  0  0  0  3  0  0  0  0  0  0
    7.7112   14.7699    4.7442 F   0  0  0  0  0  0  0  0  0  0  0  0
    4.2938   11.5118    4.5330 C   0  0  0  0  0  0  0  0  0  0  0  0
    3.3850   10.3684    4.1362 C   0  0  0  0  0  3  0  0  0  0  0  0
    4.1647    9.2932    3.7118 O   0  0  0  0  0  0  0  0  0  0  0  0
    5.3660    9.3401    4.4163 C   0  0  0  0  0  3  0  0  0  0  0  0
    5.4198    8.1637    5.3646 C   0  0  0  0  0  0  0  0  0  0  0  0
    4.2156    7.2770    5.2549 C   0  0  0  0  0  3  0  0  0  0  0  0
    3.5083    7.2681    6.5888 C   0  0  0  0  0  3  0  0  0  0  0  0
    4.1190    8.3230    7.5015 C   0  0  0  0  0  0  0  0  0  0  0  0
    3.1041    9.4075    7.7600 C   0  0  0  0  0  3  0  0  0  0  0  0
    3.5302   10.1788    8.9683 C   0  0  1  0  0  0  0  0  0  0  0  0
    4.3986    9.4055    9.9136 C   0  0  0  0  0  2  0  0  0  0  0  0
    4.1033   11.5349    8.6139 C   0  0  0  0  0  3  0  0  0  0  0  0
    4.6445   12.2346    9.8311 C   0  0  0  0  0  0  0  0  0  0  0  0
  1  2  1  0
  2  3  1  0
  3  4  1  0
  5  4  1  6
  5  6  1  0
  6  7  1  0
  7  8  1  0
  8  9  1  0
  9 10  1  0
 10 11  1  0
  5 12  1  0
 12 13  1  0
 13 14  1  0
 14 15  1  0
 15 16  1  0
 16 17  1  0
 17 18  1  0
 18 19  1  0
 19 20  1  0
 20 21  1  0
 21 22  1  6
 21 23  1  0
 23 24  1  0
M  RAD  8   3   2   4   2   7   2   9   2  10   2  13   2  15   2  17   2
M  RAD  4  18   2  20   2  22   3  23   2
M  END
>  <docking_score>  (2) 
-2.3119999999999998

$$$$

     RDKit          3D

 24 23  0  0  0  0  0  0  0  0999 V2000
    4.4696    8.6022    9.5680 C   0  0  0  0  0  0  0  0  0  0  0  0
    4.8294    8.4895   10.9055 O   0  0  0  0  0  0  0  0  0  0  0  0
    4.2148    9.4341   11.7063 C   0  0  0  0  0  3  0  0  0  0  0  0
    5.2500   10.2528   12.4193 C   0  0  0  0  0  3  0  0  0  0  0  0
    5.4853   11.5368   11.6857 C   0  0  2  0  0  0  0  0  0  0  0  0
    6.4135   12.4618   12.4449 C   0  0  0  0  0  0  0  0  0  0  0  0
    7.2848   13.2721   11.5104 C   0  0  0  0  0  3  0  0  0  0  0  0
    8.6469   13.0133   11.7112 O   0  0  0  0  0  0  0  0  0  0  0  0
    9.3384   14.1884   11.4296 C   0  0  0  0  0  3  0  0  0  0  0  0
    9.6015   14.9378   12.7071 C   0  0  0  0  0  3  0  0  0  0  0  0
   10.9899   15.0183   12.8637 F   0  0  0  0  0  0  0  0  0  0  0  0
    4.1980   12.2815   11.4280 C   0  0  0  0  0  0  0  0  0  0  0  0
    3.8771   12.1299    9.9567 C   0  0  0  0  0  3  0  0  0  0  0  0
    4.9400   12.6293    9.2050 O   0  0  0  0  0  0  0  0  0  0  0  0
    4.7147   13.9905    9.0098 C   0  0  0  0  0  3  0  0  0  0  0  0
    5.1762   14.3653    7.6196 C   0  0  0  0  0  0  0  0  0  0  0  0
    6.6368   14.7007    7.5660 C   0  0  0  0  0  3  0  0  0  0  0  0
    6.7992   15.9997    6.8138 C   0  0  0  0  0  3  0  0  0  0  0  0
    6.2516   15.8478    5.4011 C   0  0  0  0  0  0  0  0  0  0  0  0
    7.2303   15.0592    4.5685 C   0  0  0  0  0  3  0  0  0  0  0  0
    6.5045   14.4960    3.3885 C   0  0  1  0  0  0  0  0  0  0  0  0
    7.3671   14.2889    2.1806 C   0  0  0  0  0  2  0  0  0  0  0  0
    5.6843   13.2742    3.7457 C   0  0  0  0  0  3  0  0  0  0  0  0
    6.4881   12.2944    4.5569 C   0  0  0  0  0  0  0  0  0  0  0  0
  1  2  1  0
  2  3  1  0
  3  4  1  0
  5  4  1  1
  5  6  1  0
  6  7  1  0
  7  8  1  0
  8  9  1  0
  9 10  1  0
 10 11  1  0
  5 12  1  0
 12 13  1  0
 13 14  1  0
 14 15  1  0
 15 16  1  0
 16 17  1  0
 17 18  1  0
 18 19  1  0
 19 20  1  0
 20 21  1  0
 21 22  1  6
 21 23  1  0
 23 24  1  0
M  RAD  8   3   2   4   2   7   2   9   2  10   2  13   2  15   2  17   2
M  RAD  4  18   2  20   2  22   3  23   2
M  END
>  <docking_score>  (3) 
-1.6699999999999999

$$$$
