
     RDKit          3D

 36 38  0  0  0  0  0  0  0  0999 V2000
    5.4711    8.2227   11.5871 C   0  0  0  0  0  0  0  0  0  0  0  0
    4.1890    8.9832   11.7544 C   0  0  0  0  0  0  0  0  0  0  0  0
    4.1143   10.4255   11.3495 C   0  0  0  0  0  0  0  0  0  0  0  0
    2.8984   11.2369   11.6861 O   0  0  0  0  0  0  0  0  0  0  0  0
    5.2553   11.0565   10.6080 O   0  0  0  0  0  0  0  0  0  0  0  0
    5.6006   12.4964   10.8474 C   0  0  0  0  0  0  0  0  0  0  0  0
    5.7981   13.4236    9.6849 C   0  0  0  0  0  0  0  0  0  0  0  0
    4.8062   13.4376    8.5598 C   0  0  0  0  0  0  0  0  0  0  0  0
    3.3485   13.2254    8.8424 C   0  0  0  0  0  0  0  0  0  0  0  0
    5.2721   13.6639    7.1521 C   0  0  0  0  0  0  0  0  0  0  0  0
    5.6550   15.1019    6.9632 C   0  0  0  0  0  0  0  0  0  0  0  0
    6.1775   16.0218    5.8998 C   0  0  0  0  0  0  0  0  0  0  0  0
    6.5949   15.9933    4.4594 C   0  0  0  0  0  3  0  0  0  0  0  0
    6.7121   15.0295    3.3159 C   0  0  0  0  0  0  0  0  0  0  0  0
    6.6478   13.7464    2.5417 C   0  0  0  0  0  0  0  0  0  0  0  0
    6.2649   12.3084    2.7305 C   0  0  0  0  0  0  0  0  0  0  0  0
    5.8474   12.3370    4.1709 C   0  0  0  0  0  0  0  0  0  0  0  0
    5.3250   11.4171    5.2343 C   0  0  0  0  0  0  0  0  0  0  0  0
    5.3309   10.3985    4.4266 C   0  0  0  0  0  0  0  0  0  0  0  0
    4.5647    9.0493    5.9863 O   0  0  0  0  0  0  0  0  0  0  0  0
    5.4826   10.1169    3.6933 C   0  0  0  0  0  0  0  0  0  0  0  0
    5.7612   10.6075    3.1262 C   0  0  0  0  0  0  0  0  0  0  0  0
    6.1785    9.8332    1.1097 O   0  0  0  0  0  0  0  0  0  0  0  0
    5.8881   11.3797    3.2923 C   0  0  0  0  0  0  0  0  0  0  0  0
    6.6543   12.7289    1.7326 C   0  0  0  0  0  0  0  0  0  0  0  0
    6.4195   14.3895    3.8148 C   0  0  0  0  0  0  0  0  0  0  0  0
    5.9673   13.3918    4.5794 C   0  0  0  0  0  0  0  0  0  0  0  0
    5.5061   12.7811    5.6743 C   0  0  0  0  0  0  0  0  0  0  0  0
    5.2079   12.3808    6.3778 C   0  0  0  0  0  0  0  0  0  0  0  0
    4.6980   11.2768    7.2560 C   0  0  0  0  0  0  0  0  0  0  0  0
    5.7483   13.0093   12.2493 C   0  0  0  0  0  3  0  0  0  0  0  0
    4.9658   14.2087   12.6955 C   0  0  0  0  0  0  0  0  0  0  0  0
    3.8989   14.0621   13.7396 C   0  0  0  0  0  0  0  0  0  0  0  0
    4.2121   14.3515   15.1777 C   0  0  0  0  0  0  0  0  0  0  0  0
    4.2321   13.2358   16.1802 C   0  0  0  0  0  0  0  0  0  0  0  0
    4.2521   12.1201   17.1826 N   0  0  0  0  0  0  0  0  0  0  0  0
  1  2  2  0
  2  3  1  0
  3  4  2  0
  3  5  1  0
  5  6  1  0
  6  7  1  0
  7  8  1  0
  8  9  1  0
  8 10  1  0
 10 11  1  0
 11 12  1  0
 12 13  1  0
 13 14  1  0
 14 15  2  0
 15 16  1  0
 16 17  2  0
 17 18  1  0
 18 19  1  0
 19 20  1  0
 19 21  1  0
 21 22  1  0
 22 23  1  0
 22 24  1  0
 24 25  2  0
 14 26  1  0
 26 27  1  0
 27 28  1  0
 28 29  1  0
 29 30  1  0
  6 31  1  0
 31 32  1  0
 32 33  1  0
 33 34  1  0
 34 35  1  0
 35 36  3  0
 29 10  1  0
 24 17  1  0
 29 18  1  0
M  RAD  2  13   2  31   2
M  END
>  <docking_score>  (1) 
-4.2709999999999999

$$$$

     RDKit          3D

 36 38  0  0  0  0  0  0  0  0999 V2000
    4.6120    9.4845    6.3597 C   0  0  0  0  0  0  0  0  0  0  0  0
    4.8258   10.8643    6.9078 C   0  0  0  0  0  0  0  0  0  0  0  0
    3.6531   11.6787    7.3675 C   0  0  0  0  0  0  0  0  0  0  0  0
    2.2575   11.1762    7.1447 O   0  0  0  0  0  0  0  0  0  0  0  0
    3.8760   12.9957    8.0501 O   0  0  0  0  0  0  0  0  0  0  0  0
    5.2334   13.6335    8.0245 C   0  0  0  0  0  0  0  0  0  0  0  0
    6.1987   13.3879    9.1461 C   0  0  0  0  0  0  0  0  0  0  0  0
    6.6024   14.5159   10.0486 C   0  0  0  0  0  0  0  0  0  0  0  0
    5.5532   15.3455   10.7274 C   0  0  0  0  0  0  0  0  0  0  0  0
    8.0553   14.8142   10.2725 C   0  0  0  0  0  0  0  0  0  0  0  0
    8.6673   15.3569    9.0151 C   0  0  0  0  0  0  0  0  0  0  0  0
    9.9867   15.8496    8.4992 C   0  0  0  0  0  0  0  0  0  0  0  0
   11.3963   16.0620    8.9660 C   0  0  0  0  0  3  0  0  0  0  0  0
   12.2364   15.8946   10.1974 C   0  0  0  0  0  0  0  0  0  0  0  0
   12.6183   15.5560   11.6078 C   0  0  0  0  0  0  0  0  0  0  0  0
   12.0064   15.0134   12.8653 C   0  0  0  0  0  0  0  0  0  0  0  0
   10.5968   14.8010   12.3984 C   0  0  0  0  0  0  0  0  0  0  0  0
    9.2774   14.3082   12.9143 C   0  0  0  0  0  0  0  0  0  0  0  0
    9.7707   14.0693   14.0931 C   0  0  0  0  0  0  0  0  0  0  0  0
    7.8355   13.3465   14.8498 O   0  0  0  0  0  0  0  0  0  0  0  0
   10.4091   14.0820   14.5750 C   0  0  0  0  0  0  0  0  0  0  0  0
   11.1128   14.3449   14.2998 C   0  0  0  0  0  0  0  0  0  0  0  0
   12.8685   14.3799   15.6252 O   0  0  0  0  0  0  0  0  0  0  0  0
   11.1781   14.5949   13.5427 C   0  0  0  0  0  0  0  0  0  0  0  0
   13.1133   15.3177   12.7860 C   0  0  0  0  0  0  0  0  0  0  0  0
   11.5556   15.5889   10.6301 C   0  0  0  0  0  0  0  0  0  0  0  0
   10.5072   15.1145   11.3086 C   0  0  0  0  0  0  0  0  0  0  0  0
    9.2485   14.7273   11.5321 C   0  0  0  0  0  0  0  0  0  0  0  0
    8.4372   14.4757   11.6830 C   0  0  0  0  0  0  0  0  0  0  0  0
    7.2455   13.9457   12.4240 C   0  0  0  0  0  0  0  0  0  0  0  0
    5.6255   14.5168    6.8773 C   0  0  0  0  0  3  0  0  0  0  0  0
    5.3943   14.0614    5.4670 C   0  0  0  0  0  0  0  0  0  0  0  0
    6.0383   14.7936    4.3273 C   0  0  0  0  0  0  0  0  0  0  0  0
    7.3727   15.4519    4.5172 C   0  0  0  0  0  0  0  0  0  0  0  0
    8.4300   15.3224    3.4609 C   0  0  0  0  0  0  0  0  0  0  0  0
    9.4872   15.1930    2.4048 N   0  0  0  0  0  0  0  0  0  0  0  0
  1  2  2  0
  2  3  1  0
  3  4  2  0
  3  5  1  0
  5  6  1  0
  6  7  1  0
  7  8  1  0
  8  9  1  0
  8 10  1  0
 10 11  1  0
 11 12  1  0
 12 13  1  0
 13 14  1  0
 14 15  2  0
 15 16  1  0
 16 17  2  0
 17 18  1  0
 18 19  1  0
 19 20  1  0
 19 21  1  0
 21 22  1  0
 22 23  1  0
 22 24  1  0
 24 25  2  0
 14 26  1  0
 26 27  1  0
 27 28  1  0
 28 29  1  0
 29 30  1  0
  6 31  1  0
 31 32  1  0
 32 33  1  0
 33 34  1  0
 34 35  1  0
 35 36  3  0
 29 10  1  0
 24 17  1  0
 29 18  1  0
M  RAD  2  13   2  31   2
M  END
>  <docking_score>  (2) 
-2.3140000000000001

$$$$

     RDKit          3D

 36 38  0  0  0  0  0  0  0  0999 V2000
    3.0369   15.9842   10.8773 C   0  0  0  0  0  0  0  0  0  0  0  0
    3.3482   15.1310   12.0711 C   0  0  0  0  0  0  0  0  0  0  0  0
    4.6530   14.3951   12.1473 C   0  0  0  0  0  0  0  0  0  0  0  0
    5.8173   15.0057   12.8696 O   0  0  0  0  0  0  0  0  0  0  0  0
    4.7936   13.0487   11.5013 O   0  0  0  0  0  0  0  0  0  0  0  0
    3.5745   12.2228   11.2158 C   0  0  0  0  0  0  0  0  0  0  0  0
    3.2518   11.8242    9.8062 C   0  0  0  0  0  0  0  0  0  0  0  0
    3.7923   10.5416    9.2471 C   0  0  0  0  0  0  0  0  0  0  0  0
    3.6895    9.2743   10.0429 C   0  0  0  0  0  0  0  0  0  0  0  0
    4.4357   10.5262    7.8922 C   0  0  0  0  0  0  0  0  0  0  0  0
    4.4119    9.1364    7.3286 C   0  0  0  0  0  0  0  0  0  0  0  0
    4.8393    8.3863    6.1019 C   0  0  0  0  0  0  0  0  0  0  0  0
    5.5180    8.6270    4.7861 C   0  0  0  0  0  3  0  0  0  0  0  0
    6.1303    9.7460    3.9968 C   0  0  0  0  0  0  0  0  0  0  0  0
    6.5942   11.1254    3.6335 C   0  0  0  0  0  0  0  0  0  0  0  0
    6.6181   12.5153    4.1970 C   0  0  0  0  0  0  0  0  0  0  0  0
    5.9394   12.2745    5.5129 C   0  0  0  0  0  0  0  0  0  0  0  0
    5.5120   13.0246    6.7395 C   0  0  0  0  0  0  0  0  0  0  0  0
    5.9710   14.1481    6.2736 C   0  0  0  0  0  0  0  0  0  0  0  0
    5.3441   15.2482    8.0728 O   0  0  0  0  0  0  0  0  0  0  0  0
    6.3374   14.5339    5.6763 C   0  0  0  0  0  0  0  0  0  0  0  0
    6.5653   14.1339    5.0220 C   0  0  0  0  0  0  0  0  0  0  0  0
    7.5729   15.1950    3.3792 O   0  0  0  0  0  0  0  0  0  0  0  0
    6.4269   13.3480    4.9652 C   0  0  0  0  0  0  0  0  0  0  0  0
    7.0538   12.2480    3.1660 C   0  0  0  0  0  0  0  0  0  0  0  0
    5.9461   10.3034    4.6289 C   0  0  0  0  0  0  0  0  0  0  0  0
    5.6651   11.1742    5.6021 C   0  0  0  0  0  0  0  0  0  0  0  0
    5.1987   11.6148    6.7738 C   0  0  0  0  0  0  0  0  0  0  0  0
    4.8997   11.9056    7.5288 C   0  0  0  0  0  0  0  0  0  0  0  0
    4.5736   12.8645    8.6353 C   0  0  0  0  0  0  0  0  0  0  0  0
    2.6779   11.7955   12.3400 C   0  0  0  0  0  3  0  0  0  0  0  0
    3.2690   11.2310   13.5977 C   0  0  0  0  0  0  0  0  0  0  0  0
    2.7834    9.9154   14.1299 C   0  0  0  0  0  0  0  0  0  0  0  0
    3.3838    9.3445   15.3804 C   0  0  0  0  0  0  0  0  0  0  0  0
    2.8364    8.0755   15.9636 C   0  0  0  0  0  0  0  0  0  0  0  0
    2.2890    6.8066   16.5468 N   0  0  0  0  0  0  0  0  0  0  0  0
  1  2  2  0
  2  3  1  0
  3  4  2  0
  3  5  1  0
  5  6  1  0
  6  7  1  0
  7  8  1  0
  8  9  1  0
  8 10  1  0
 10 11  1  0
 11 12  1  0
 12 13  1  0
 13 14  1  0
 14 15  2  0
 15 16  1  0
 16 17  2  0
 17 18  1  0
 18 19  1  0
 19 20  1  0
 19 21  1  0
 21 22  1  0
 22 23  1  0
 22 24  1  0
 24 25  2  0
 14 26  1  0
 26 27  1  0
 27 28  1  0
 28 29  1  0
 29 30  1  0
  6 31  1  0
 31 32  1  0
 32 33  1  0
 33 34  1  0
 34 35  1  0
 35 36  3  0
 29 10  1  0
 24 17  1  0
 29 18  1  0
M  RAD  2  13   2  31   2
M  END
>  <docking_score>  (3) 
-2.298

$$$$
