
     RDKit          3D

 28 29  0  0  0  0  0  0  0  0999 V2000
    6.3110   12.7999    4.4030 C   0  0  0  0  0  0  0  0  0  0  0  0
    7.0940   13.9954    3.9778 C   0  0  1  0  0  0  0  0  0  0  0  0
    7.5608   13.9463    2.5544 C   0  0  0  0  0  0  0  0  0  0  0  0
    6.4395   15.3087    4.3433 C   0  0  0  0  0  0  0  0  0  0  0  0
    7.0470   15.8194    5.6350 C   0  0  0  0  0  0  0  0  0  0  0  0
    6.8343   14.8565    6.7761 C   0  0  0  0  0  0  0  0  0  0  0  0
    6.3413   15.6129    8.0015 C   0  0  1  0  0  0  0  0  0  0  0  0
    4.8887   16.0226    7.8371 C   0  0  0  0  0  0  0  0  0  0  0  0
    6.5086   14.6742    9.1804 C   0  0  0  0  0  3  0  0  0  0  0  0
    5.3353   13.7428    9.2835 C   0  0  0  0  0  0  0  0  0  0  0  0
    5.6019   12.7301   10.3626 C   0  0  0  0  0  0  0  0  0  0  0  0
    4.3414   12.5171   11.1805 C   0  0  2  0  0  0  0  0  0  0  0  0
    4.5772   12.8960   12.6429 C   0  0  0  0  0  0  0  0  0  0  0  0
    3.9578   11.0575   11.0492 C   0  0  0  0  0  3  0  0  0  0  0  0
    4.1824   10.6680    9.5846 C   0  0  0  0  0  0  0  0  0  0  0  0
    4.0158    9.1768    9.3884 C   0  0  1  0  0  0  0  0  0  0  0  0
    3.3316    8.5597   10.5137 N   0  0  0  0  0  0  0  0  0  0  0  0
    3.2416    8.9590    8.0965 C   0  0  0  0  0  0  0  0  0  0  0  0
    4.1111    9.4126    6.9533 C   0  0  0  0  0  0  0  0  0  0  0  0
    3.8710    8.5094    5.7515 C   0  0  2  0  0  0  0  0  0  0  0  0
    4.3588    7.2368    6.0195 O   0  0  0  0  0  0  0  0  0  0  0  0
    4.6551    9.1042    4.5775 C   0  0  0  0  0  0  0  0  0  0  0  0
    4.2744   10.5615    4.5079 C   0  0  2  0  0  0  0  0  0  0  0  0
    2.7634   10.6799    4.6381 C   0  0  0  0  0  0  0  0  0  0  0  0
    4.7613   11.2128    3.2182 C   0  0  1  0  0  0  0  0  0  0  0  0
    3.4504   11.7417    2.1949 S   0  0  0  0  0  0  0  0  0  0  0  0
    4.2123   13.1522    2.7705 C   0  0  0  0  0  0  0  0  0  0  0  0
    5.1093   12.5746    3.4730 C   0  0  0  0  0  0  0  0  0  0  0  0
  1  2  1  0
  2  3  1  6
  2  4  1  0
  4  5  1  0
  5  6  1  0
  6  7  1  0
  7  8  1  6
  7  9  1  0
  9 10  1  0
 10 11  1  0
 11 12  1  0
 12 13  1  1
 12 14  1  0
 14 15  1  0
 15 16  1  0
 16 17  1  1
 16 18  1  0
 18 19  1  0
 19 20  1  0
 20 21  1  1
 20 22  1  0
 22 23  1  0
 23 24  1  6
 23 25  1  0
 25 26  1  6
 26 27  1  0
 27 28  2  0
 28  1  1  0
 28 25  1  0
M  RAD  2   9   2  14   2
M  END
>  <docking_score>  (1) 
-4.9009999999999998

$$$$

     RDKit          3D

 28 29  0  0  0  0  0  0  0  0999 V2000
    5.8530   11.0278    3.8962 C   0  0  0  0  0  0  0  0  0  0  0  0
    6.6353   11.7889    2.8804 C   0  0  1  0  0  0  0  0  0  0  0  0
    6.8954   11.0302    1.6143 C   0  0  0  0  0  0  0  0  0  0  0  0
    6.1135   13.1874    2.6383 C   0  0  0  0  0  0  0  0  0  0  0  0
    6.9231   14.1657    3.4663 C   0  0  0  0  0  0  0  0  0  0  0  0
    6.8176   13.8755    4.9425 C   0  0  0  0  0  0  0  0  0  0  0  0
    6.5439   15.1662    5.7016 C   0  0  1  0  0  0  0  0  0  0  0  0
    5.1081   15.6175    5.5027 C   0  0  0  0  0  0  0  0  0  0  0  0
    6.8207   14.8707    7.1628 C   0  0  0  0  0  3  0  0  0  0  0  0
    5.6226   14.2368    7.8089 C   0  0  0  0  0  0  0  0  0  0  0  0
    5.9795   13.8186    9.2084 C   0  0  0  0  0  0  0  0  0  0  0  0
    4.8354   14.1577   10.1461 C   0  0  2  0  0  0  0  0  0  0  0  0
    5.2939   15.1427   11.2219 C   0  0  0  0  0  0  0  0  0  0  0  0
    4.3553   12.8598   10.7624 C   0  0  0  0  0  3  0  0  0  0  0  0
    4.3510   11.8111    9.6455 C   0  0  0  0  0  0  0  0  0  0  0  0
    4.0747   10.4302   10.1993 C   0  0  1  0  0  0  0  0  0  0  0  0
    3.5204   10.4908   11.5426 N   0  0  0  0  0  0  0  0  0  0  0  0
    3.1168    9.7282    9.2478 C   0  0  0  0  0  0  0  0  0  0  0  0
    3.8425    9.4944    7.9488 C   0  0  0  0  0  0  0  0  0  0  0  0
    3.3864    8.1707    7.3507 C   0  0  2  0  0  0  0  0  0  0  0  0
    3.8341    7.1217    8.1434 O   0  0  0  0  0  0  0  0  0  0  0  0
    4.0314    8.0564    5.9659 C   0  0  0  0  0  0  0  0  0  0  0  0
    3.7277    9.3474    5.2485 C   0  0  2  0  0  0  0  0  0  0  0  0
    2.2588    9.6868    5.4514 C   0  0  0  0  0  0  0  0  0  0  0  0
    4.0660    9.2634    3.7642 C   0  0  1  0  0  0  0  0  0  0  0  0
    2.6571    9.4037    2.7440 S   0  0  0  0  0  0  0  0  0  0  0  0
    3.5703   10.8212    2.5031 C   0  0  0  0  0  0  0  0  0  0  0  0
    4.5225   10.5368    3.3058 C   0  0  0  0  0  0  0  0  0  0  0  0
  1  2  1  0
  2  3  1  6
  2  4  1  0
  4  5  1  0
  5  6  1  0
  6  7  1  0
  7  8  1  1
  7  9  1  0
  9 10  1  0
 10 11  1  0
 11 12  1  0
 12 13  1  1
 12 14  1  0
 14 15  1  0
 15 16  1  0
 16 17  1  1
 16 18  1  0
 18 19  1  0
 19 20  1  0
 20 21  1  1
 20 22  1  0
 22 23  1  0
 23 24  1  6
 23 25  1  0
 25 26  1  6
 26 27  1  0
 27 28  2  0
 28  1  1  0
 28 25  1  0
M  RAD  2   9   2  14   2
M  END
>  <docking_score>  (2) 
-4.7949999999999999

$$$$

     RDKit          3D

 28 29  0  0  0  0  0  0  0  0999 V2000
    6.2281   11.5616    4.9192 C   0  0  0  0  0  0  0  0  0  0  0  0
    7.0460   12.3579    3.9600 C   0  0  1  0  0  0  0  0  0  0  0  0
    7.3135   11.6621    2.6597 C   0  0  0  0  0  0  0  0  0  0  0  0
    6.5595   13.7788    3.7841 C   0  0  0  0  0  0  0  0  0  0  0  0
    7.3742   14.6929    4.6779 C   0  0  0  0  0  0  0  0  0  0  0  0
    7.2345   14.3268    6.1342 C   0  0  0  0  0  0  0  0  0  0  0  0
    6.9745   15.5810    6.9566 C   0  0  1  0  0  0  0  0  0  0  0  0
    5.5529   16.0749    6.7567 C   0  0  0  0  0  0  0  0  0  0  0  0
    7.2170   15.2018    8.4045 C   0  0  0  0  0  3  0  0  0  0  0  0
    5.9933   14.5618    8.9941 C   0  0  0  0  0  0  0  0  0  0  0  0
    6.3143   14.0615   10.3753 C   0  0  0  0  0  0  0  0  0  0  0  0
    5.1602   14.3760   11.3093 C   0  0  2  0  0  0  0  0  0  0  0  0
    5.6195   15.2916   12.4445 C   0  0  0  0  0  0  0  0  0  0  0  0
    4.6404   13.0584   11.8463 C   0  0  0  0  0  3  0  0  0  0  0  0
    4.6345   12.0711   10.6747 C   0  0  0  0  0  0  0  0  0  0  0  0
    4.3177   10.6693   11.1485 C   0  0  1  0  0  0  0  0  0  0  0  0
    3.7394   10.6707   12.4829 N   0  0  0  0  0  0  0  0  0  0  0  0
    3.3630   10.0410   10.1436 C   0  0  0  0  0  0  0  0  0  0  0  0
    4.1081    9.8604    8.8471 C   0  0  0  0  0  0  0  0  0  0  0  0
    3.6347    8.5812    8.1707 C   0  0  2  0  0  0  0  0  0  0  0  0
    4.0444    7.4814    8.9137 O   0  0  0  0  0  0  0  0  0  0  0  0
    4.3033    8.5263    6.7935 C   0  0  0  0  0  0  0  0  0  0  0  0
    4.0414    9.8603    6.1412 C   0  0  2  0  0  0  0  0  0  0  0  0
    2.5767   10.2217    6.3358 C   0  0  0  0  0  0  0  0  0  0  0  0
    4.4060    9.8479    4.6608 C   0  0  1  0  0  0  0  0  0  0  0  0
    3.0201   10.0744    3.6247 S   0  0  0  0  0  0  0  0  0  0  0  0
    3.9684   11.4817    3.4766 C   0  0  0  0  0  0  0  0  0  0  0  0
    4.8987   11.1333    4.2797 C   0  0  0  0  0  0  0  0  0  0  0  0
  1  2  1  0
  2  3  1  6
  2  4  1  0
  4  5  1  0
  5  6  1  0
  6  7  1  0
  7  8  1  1
  7  9  1  0
  9 10  1  0
 10 11  1  0
 11 12  1  0
 12 13  1  1
 12 14  1  0
 14 15  1  0
 15 16  1  0
 16 17  1  1
 16 18  1  0
 18 19  1  0
 19 20  1  0
 20 21  1  1
 20 22  1  0
 22 23  1  0
 23 24  1  6
 23 25  1  0
 25 26  1  6
 26 27  1  0
 27 28  2  0
 28  1  1  0
 28 25  1  0
M  RAD  2   9   2  14   2
M  END
>  <docking_score>  (3) 
-4.4690000000000003

$$$$
