
     RDKit          3D

 23 24  0  0  0  0  0  0  0  0999 V2000
    3.3315    5.1630    6.1413 C   0  0  0  0  0  0  0  0  0  0  0  0
    3.6484    5.9708    4.9026 C   0  0  2  0  0  0  0  0  0  0  0  0
    4.9374    6.7003    5.0339 C   0  0  0  0  0  0  0  0  0  0  0  0
    2.5423    6.9206    4.6770 C   0  0  0  0  0  0  0  0  0  0  0  0
    2.5891    8.2136    4.7474 C   0  0  0  0  0  0  0  0  0  0  0  0
    3.6462    9.1083    5.0456 C   0  0  0  0  0  0  0  0  0  0  0  0
    4.1793    9.9456    4.0674 O   0  0  0  0  0  0  0  0  0  0  0  0
    5.3545   10.6131    4.3159 C   0  0  0  0  0  0  0  0  0  0  0  0
    6.2840   10.6568    3.3251 C   0  0  0  0  0  0  0  0  0  0  0  0
    5.8674    9.8497    1.8377 Cl  0  0  0  0  0  0  0  0  0  0  0  0
    7.5013   11.3172    3.6358 C   0  0  0  0  0  0  0  0  0  0  0  0
    7.8746   12.5467    3.4692 C   0  0  0  0  0  0  0  0  0  0  0  0
    7.4289   13.8081    2.9798 C   0  0  1  0  0  0  0  0  0  0  0  0
    6.5316   14.6792    3.8470 C   0  0  0  0  0  0  0  0  0  0  0  0
    5.1785   14.2330    4.0588 C   0  0  0  0  0  0  0  0  0  0  0  0
    4.4851   13.7294    3.0205 C   0  0  0  0  0  0  0  0  0  0  0  0
    9.1697   13.1418    3.6661 C   0  0  0  0  0  0  0  0  0  0  0  0
    8.8065   14.2550    3.2169 C   0  0  0  0  0  0  0  0  0  0  0  0
    9.4102   15.4889    3.0046 O   0  0  0  0  0  0  0  0  0  0  0  0
    4.1726    9.1953    6.2469 C   0  0  0  0  0  0  0  0  0  0  0  0
    3.7880    8.3247    7.7422 S   0  0  0  0  0  0  0  0  0  0  0  0
    3.0457    6.9122    7.9299 C   0  0  0  0  0  0  0  0  0  0  0  0
    2.5190    6.0156    6.9952 N   0  0  0  0  0  0  0  0  0  0  0  0
  1  2  1  0
  2  3  1  1
  2  4  1  0
  4  5  2  3
  5  6  1  0
  6  7  1  0
  7  8  1  0
  8  9  2  3
  9 10  1  0
  9 11  1  0
 11 12  2  3
 12 13  1  0
 13 14  1  1
 14 15  1  0
 15 16  2  0
 12 17  1  0
 17 18  2  0
 18 19  1  0
  6 20  2  3
 20 21  1  0
 21 22  2  3
 22 23  1  0
 23  1  1  0
 18 13  1  0
M  END
>  <docking_score>  (1) 
-4.8029999999999999

$$$$

     RDKit          3D

 23 24  0  0  0  0  0  0  0  0999 V2000
   19.4978   -4.1819   -1.7413 C   0  0  0  0  0  0  0  0  0  0  0  0
   18.4832   -4.3961   -2.8421 C   0  0  2  0  0  0  0  0  0  0  0  0
   19.0268   -4.0221   -4.1745 C   0  0  0  0  0  0  0  0  0  0  0  0
   17.2885   -3.5887   -2.5305 C   0  0  0  0  0  0  0  0  0  0  0  0
   16.8323   -2.5716   -3.1913 C   0  0  0  0  0  0  0  0  0  0  0  0
   17.2893   -1.9218   -4.3642 C   0  0  0  0  0  0  0  0  0  0  0  0
   16.5710   -1.9969   -5.5559 O   0  0  0  0  0  0  0  0  0  0  0  0
   16.4417   -3.2080   -6.1923 C   0  0  0  0  0  0  0  0  0  0  0  0
   17.1647   -3.4129   -7.3250 C   0  0  0  0  0  0  0  0  0  0  0  0
   18.1832   -2.0962   -7.8410 Cl  0  0  0  0  0  0  0  0  0  0  0  0
   16.9702   -4.6587   -7.9765 C   0  0  0  0  0  0  0  0  0  0  0  0
   17.2619   -5.8682   -7.6150 C   0  0  0  0  0  0  0  0  0  0  0  0
   17.8398   -6.6240   -6.5548 C   0  0  1  0  0  0  0  0  0  0  0  0
   17.0126   -6.9430   -5.3178 C   0  0  0  0  0  0  0  0  0  0  0  0
   15.7308   -6.2978   -5.1929 C   0  0  0  0  0  0  0  0  0  0  0  0
   14.7259   -6.9514   -4.5802 C   0  0  0  0  0  0  0  0  0  0  0  0
   17.1785   -7.0911   -8.3685 C   0  0  0  0  0  0  0  0  0  0  0  0
   17.7071   -7.7728   -7.4582 C   0  0  0  0  0  0  0  0  0  0  0  0
   18.0553   -9.1076   -7.2873 O   0  0  0  0  0  0  0  0  0  0  0  0
   18.4012   -1.2213   -4.3891 C   0  0  0  0  0  0  0  0  0  0  0  0
   19.5818   -0.8827   -3.1110 S   0  0  0  0  0  0  0  0  0  0  0  0
   19.8619   -1.6904   -1.7506 C   0  0  0  0  0  0  0  0  0  0  0  0
   19.2698   -2.8419   -1.2229 N   0  0  0  0  0  0  0  0  0  0  0  0
  1  2  1  0
  2  3  1  6
  2  4  1  0
  4  5  2  3
  5  6  1  0
  6  7  1  0
  7  8  1  0
  8  9  2  3
  9 10  1  0
  9 11  1  0
 11 12  2  3
 12 13  1  0
 13 14  1  1
 14 15  1  0
 15 16  2  0
 12 17  1  0
 17 18  2  0
 18 19  1  0
  6 20  2  3
 20 21  1  0
 21 22  2  3
 22 23  1  0
 23  1  1  0
 18 13  1  0
M  END
>  <docking_score>  (2) 
-4.5800000000000001

$$$$

     RDKit          3D

 23 24  0  0  0  0  0  0  0  0999 V2000
   18.9017   -6.8341   -3.5017 C   0  0  0  0  0  0  0  0  0  0  0  0
   18.6958   -5.5518   -4.2766 C   0  0  2  0  0  0  0  0  0  0  0  0
   17.2944   -5.4140   -4.7539 C   0  0  0  0  0  0  0  0  0  0  0  0
   19.6293   -5.5494   -5.4190 C   0  0  0  0  0  0  0  0  0  0  0  0
   19.3307   -5.6005   -6.6789 C   0  0  0  0  0  0  0  0  0  0  0  0
   18.0882   -5.6722   -7.3557 C   0  0  0  0  0  0  0  0  0  0  0  0
   17.6167   -4.6009   -8.1119 O   0  0  0  0  0  0  0  0  0  0  0  0
   17.0488   -3.5228   -7.4764 C   0  0  0  0  0  0  0  0  0  0  0  0
   15.7258   -3.2873   -7.6808 C   0  0  0  0  0  0  0  0  0  0  0  0
   14.8972   -4.3966   -8.7391 Cl  0  0  0  0  0  0  0  0  0  0  0  0
   15.1871   -2.1398   -7.0424 C   0  0  0  0  0  0  0  0  0  0  0  0
   15.1619   -1.7864   -5.7961 C   0  0  0  0  0  0  0  0  0  0  0  0
   15.5687   -2.1988   -4.4947 C   0  0  1  0  0  0  0  0  0  0  0  0
   17.0089   -1.9850   -4.0515 C   0  0  0  0  0  0  0  0  0  0  0  0
   17.3230   -2.2447   -2.6700 C   0  0  0  0  0  0  0  0  0  0  0  0
   18.6070   -2.1888   -2.2689 C   0  0  0  0  0  0  0  0  0  0  0  0
   14.4784   -0.6838   -5.1739 C   0  0  0  0  0  0  0  0  0  0  0  0
   14.8045   -1.0407   -4.0166 C   0  0  0  0  0  0  0  0  0  0  0  0
   14.5805   -0.5695   -2.7283 O   0  0  0  0  0  0  0  0  0  0  0  0
   17.3247   -6.7410   -7.3073 C   0  0  0  0  0  0  0  0  0  0  0  0
   17.5558   -8.2888   -6.4749 S   0  0  0  0  0  0  0  0  0  0  0  0
   18.4938   -8.6322   -5.2164 C   0  0  0  0  0  0  0  0  0  0  0  0
   19.3541   -7.8297   -4.4610 N   0  0  0  0  0  0  0  0  0  0  0  0
  1  2  1  0
  2  3  1  6
  2  4  1  0
  4  5  2  3
  5  6  1  0
  6  7  1  0
  7  8  1  0
  8  9  2  3
  9 10  1  0
  9 11  1  0
 11 12  2  3
 12 13  1  0
 13 14  1  6
 14 15  1  0
 15 16  2  0
 12 17  1  0
 17 18  2  0
 18 19  1  0
  6 20  2  3
 20 21  1  0
 21 22  2  3
 22 23  1  0
 23  1  1  0
 18 13  1  0
M  END
>  <docking_score>  (3) 
-4.3710000000000004

$$$$
