
     RDKit          3D

 55 60  0  0  0  0  0  0  0  0999 V2000
    5.2326    3.2956   -4.9676 C   0  0  0  0  0  0  0  0  0  0  0  0
    5.1796    2.2220   -5.7822 C   0  0  0  0  0  0  0  0  0  0  0  0
    6.3604    1.8352   -6.6017 C   0  0  0  0  0  0  0  0  0  0  0  0
    6.0646    0.4938   -7.2427 C   0  0  2  0  0  0  0  0  0  0  0  0
    5.6084   -0.4378   -6.1553 C   0  0  0  0  0  3  0  0  0  0  0  0
    5.4137   -1.8484   -6.6175 C   0  0  0  0  0  0  0  0  0  0  0  0
    4.0513   -2.0150   -7.2845 C   0  0  0  0  0  0  0  0  0  0  0  0
    5.3984   -2.7444   -5.3734 C   0  0  0  0  0  0  0  0  0  0  0  0
    6.4946   -2.3468   -7.5230 C   0  0  0  0  0  0  0  0  0  0  0  0
    6.9322   -1.3565   -8.5614 C   0  0  0  0  0  0  0  0  0  0  0  0
    7.3537   -0.0668   -7.8497 C   0  0  0  0  0  3  0  0  0  0  0  0
    8.2422   -0.4931   -6.7176 C   0  0  0  0  0  0  0  0  0  0  0  0
    9.4476    0.0180   -6.6170 C   0  0  0  0  0  0  0  0  0  0  0  0
   10.4248   -0.3005   -5.5699 C   0  0  0  0  0  0  0  0  0  0  0  0
    9.8922   -1.2643   -4.5325 C   0  0  2  0  0  0  0  0  0  0  0  0
    9.9571   -0.6333   -3.2946 O   0  0  0  0  0  0  0  0  0  0  0  0
   10.7895   -2.4391   -4.4976 C   0  0  0  0  0  0  0  0  0  0  0  0
   12.0355   -2.3007   -4.8984 C   0  0  0  0  0  0  0  0  0  0  0  0
   12.9326   -3.4529   -4.8698 C   0  0  0  0  0  0  0  0  0  0  0  0
   13.8011   -3.5800   -5.8578 C   0  0  0  0  0  0  0  0  0  0  0  0
   12.5317   -0.9843   -5.3771 C   0  0  0  0  0  0  0  0  0  0  0  0
   13.3172   -0.3466   -4.2790 C   0  0  0  0  0  0  0  0  0  0  0  0
   14.5302   -1.1398   -3.8490 C   0  0  0  0  0  0  0  0  0  0  0  0
   15.7013   -0.6684   -4.7215 C   0  0  2  0  0  0  0  0  0  0  0  0
   15.2545   -0.6500   -6.0635 N   0  0  0  0  0  0  0  0  0  0  0  0
   15.9309   -0.7645   -7.1102 C   0  0  0  0  0  0  0  0  0  0  0  0
   17.3594   -0.9491   -7.2920 C   0  0  0  0  0  0  0  0  0  0  0  0
   17.8288   -2.3584   -7.3136 C   0  0  0  0  0  0  0  0  0  0  0  0
   17.1304   -3.1841   -8.0289 C   0  0  0  0  0  0  0  0  0  0  0  0
   16.8100   -4.3658   -7.4430 C   0  0  0  0  0  0  0  0  0  0  0  0
   15.3675   -4.5727   -7.4073 C   0  0  2  0  0  0  0  0  0  0  0  0
   14.6517   -3.6560   -8.3395 C   0  0  0  0  0  0  0  0  0  0  0  0
   14.7821   -4.6467   -6.0241 C   0  0  1  0  0  0  0  0  0  0  0  0
   15.8906   -4.6458   -5.0301 C   0  0  2  0  0  0  0  0  0  0  0  0
   15.7297   -5.6638   -3.9401 C   0  0  0  0  0  0  0  0  0  0  0  0
   16.2037   -3.3229   -4.5285 N   0  0  0  0  0  0  0  0  0  0  0  0
   16.8506   -2.2492   -4.6641 S   0  0  2  0  0  0  0  0  0  0  0  0
   18.2780   -1.6029   -4.5608 C   0  0  0  0  0  0  0  0  0  0  0  0
   19.4293   -2.0422   -5.4336 C   0  0  1  0  0  0  0  0  0  0  0  0
   20.3354   -2.8988   -4.5748 C   0  0  0  0  0  2  0  0  0  0  0  0
   18.9940   -2.8545   -6.6094 C   0  0  1  0  0  0  0  0  0  0  0  0
   18.7975   -4.2789   -6.2509 C   0  0  0  0  0  0  0  0  0  0  0  0
   17.9539   -5.0845   -6.9979 C   0  0  0  0  0  0  0  0  0  0  0  0
   18.5046   -6.4303   -7.1703 C   0  0  0  0  0  0  0  0  0  0  0  0
   17.5420   -7.5032   -6.8018 C   0  0  0  0  0  0  0  0  0  0  0  0
   20.2548   -0.8636   -5.9053 C   0  0  0  0  0  0  0  0  0  0  0  0
   19.4335    0.1620   -6.6183 C   0  0  0  0  0  0  0  0  0  0  0  0
   18.1806    0.5360   -5.9581 C   0  0  0  0  0  0  0  0  0  0  0  0
   18.0803    1.6866   -5.3171 C   0  0  0  0  0  0  0  0  0  0  0  0
   19.2550    2.5889   -5.2781 C   0  0  0  0  0  0  0  0  0  0  0  0
   18.9042    3.9938   -5.7201 C   0  0  2  0  0  0  0  0  0  0  0  0
   18.7027    3.9819   -7.2160 C   0  0  0  0  0  0  0  0  0  0  0  0
   20.0011    4.8784   -5.3037 C   0  0  0  0  0  0  0  0  0  0  0  0
   21.3167    5.1317   -5.0110 C   0  0  0  0  0  0  0  0  0  0  0  0
   20.4356    6.1289   -4.9079 O   0  0  0  0  0  0  0  0  0  0  0  0
  1  2  2  0
  2  3  1  0
  4  3  1  1
  4  5  1  0
  5  6  1  0
  6  7  1  0
  6  8  1  0
  6  9  1  0
  9 10  1  0
 10 11  1  0
 11 12  1  0
 12 13  2  3
 13 14  1  0
 14 15  1  0
 15 16  1  1
 15 17  1  0
 17 18  2  3
 18 19  1  0
 19 20  2  3
 18 21  1  0
 21 22  1  0
 22 23  1  0
 24 23  1  1
 24 25  1  0
 25 26  2  3
 26 27  1  0
 27 28  1  0
 28 29  2  0
 29 30  2  0
 30 31  1  0
 31 32  1  6
 31 33  1  0
 33 34  1  0
 34 35  1  1
 34 36  1  0
 36 37  1  0
 37 38  1  1
 38 39  1  0
 39 40  1  1
 39 41  1  0
 41 42  1  1
 42 43  2  0
 43 44  1  0
 44 45  1  0
 39 46  1  0
 46 47  1  0
 47 48  1  0
 48 49  2  3
 49 50  1  0
 50 51  1  0
 51 52  1  6
 51 53  1  0
 53 54  2  0
 54 55  1  0
 11  4  1  0
 33 20  1  1
 37 24  1  0
 41 28  1  0
 43 30  1  0
 55 53  1  0
M  RAD  3   5   2  11   2  40   3
M  END
>  <docking_score>  (1) 
25.314

$$$$

     RDKit          3D

 55 60  0  0  0  0  0  0  0  0999 V2000
   20.8903  -12.3701   -7.9398 C   0  0  0  0  0  0  0  0  0  0  0  0
   20.6241  -11.2705   -8.6740 C   0  0  0  0  0  0  0  0  0  0  0  0
   19.2518  -10.6948   -8.7038 C   0  0  0  0  0  0  0  0  0  0  0  0
   19.3718   -9.1930   -8.5371 C   0  0  2  0  0  0  0  0  0  0  0  0
   20.2633   -8.9377   -7.3546 C   0  0  0  0  0  3  0  0  0  0  0  0
   20.3618   -7.4917   -6.9796 C   0  0  0  0  0  0  0  0  0  0  0  0
   21.3810   -6.7736   -7.8595 C   0  0  0  0  0  0  0  0  0  0  0  0
   20.9024   -7.4216   -5.5465 C   0  0  0  0  0  0  0  0  0  0  0  0
   19.0548   -6.7653   -7.0080 C   0  0  0  0  0  0  0  0  0  0  0  0
   18.1950   -7.0925   -8.1931 C   0  0  0  0  0  0  0  0  0  0  0  0
   17.9887   -8.6101   -8.2341 C   0  0  0  0  0  3  0  0  0  0  0  0
   17.6212   -9.0135   -6.8358 C   0  0  0  0  0  0  0  0  0  0  0  0
   16.3559   -9.1723   -6.5226 C   0  0  0  0  0  0  0  0  0  0  0  0
   15.8458   -9.5622   -5.2033 C   0  0  0  0  0  0  0  0  0  0  0  0
   14.7085   -8.6877   -4.7231 C   0  0  2  0  0  0  0  0  0  0  0  0
   13.5220   -9.3835   -4.9302 O   0  0  0  0  0  0  0  0  0  0  0  0
   14.6814   -7.4716   -5.5640 C   0  0  0  0  0  0  0  0  0  0  0  0
   15.4053   -6.4329   -5.2046 C   0  0  0  0  0  0  0  0  0  0  0  0
   15.3876   -5.2249   -6.0255 C   0  0  0  0  0  0  0  0  0  0  0  0
   15.4237   -4.0591   -5.4040 C   0  0  0  0  0  0  0  0  0  0  0  0
   16.2369   -6.4827   -3.9740 C   0  0  0  0  0  0  0  0  0  0  0  0
   17.6549   -6.7303   -4.3705 C   0  0  0  0  0  0  0  0  0  0  0  0
   18.2447   -5.6530   -5.2520 C   0  0  0  0  0  0  0  0  0  0  0  0
   18.8730   -4.6096   -4.3182 C   0  0  2  0  0  0  0  0  0  0  0  0
   17.9285   -4.3173   -3.3066 N   0  0  0  0  0  0  0  0  0  0  0  0
   17.8132   -3.2715   -2.6289 C   0  0  0  0  0  0  0  0  0  0  0  0
   18.5881   -2.0440   -2.6533 C   0  0  0  0  0  0  0  0  0  0  0  0
   18.1145   -1.0025   -3.6010 C   0  0  0  0  0  0  0  0  0  0  0  0
   16.8373   -0.7792   -3.6156 C   0  0  0  0  0  0  0  0  0  0  0  0
   16.2514   -0.7157   -4.8383 C   0  0  0  0  0  0  0  0  0  0  0  0
   15.1791   -1.6944   -4.9703 C   0  0  2  0  0  0  0  0  0  0  0  0
   14.7496   -2.2296   -3.6473 C   0  0  0  0  0  0  0  0  0  0  0  0
   15.4152   -2.7394   -6.0255 C   0  0  1  0  0  0  0  0  0  0  0  0
   16.6484   -2.3904   -6.7834 C   0  0  2  0  0  0  0  0  0  0  0  0
   16.5060   -2.5258   -8.2705 C   0  0  0  0  0  0  0  0  0  0  0  0
   17.8365   -3.0390   -6.2662 N   0  0  0  0  0  0  0  0  0  0  0  0
   18.8023   -3.0210   -5.4559 S   0  0  2  0  0  0  0  0  0  0  0  0
   20.1752   -2.3326   -5.1290 C   0  0  0  0  0  0  0  0  0  0  0  0
   20.2857   -0.8607   -4.8099 C   0  0  1  0  0  0  0  0  0  0  0  0
   20.8414   -0.1801   -6.0429 C   0  0  0  0  0  2  0  0  0  0  0  0
   18.9698   -0.2337   -4.4825 C   0  0  1  0  0  0  0  0  0  0  0  0
   18.2226    0.1460   -5.7046 C   0  0  0  0  0  0  0  0  0  0  0  0
   16.8431    0.2675   -5.6788 C   0  0  0  0  0  0  0  0  0  0  0  0
   16.3862    1.4087   -6.4744 C   0  0  0  0  0  0  0  0  0  0  0  0
   14.9614    1.2955   -6.8875 C   0  0  0  0  0  0  0  0  0  0  0  0
   21.2668   -0.6043   -3.6854 C   0  0  0  0  0  0  0  0  0  0  0  0
   20.7297   -1.0149   -2.3521 C   0  0  0  0  0  0  0  0  0  0  0  0
   20.0651    0.0431   -1.5876 C   0  0  0  0  0  0  0  0  0  0  0  0
   18.8069   -0.0945   -1.2100 C   0  0  0  0  0  0  0  0  0  0  0  0
   18.0823   -1.3349   -1.5733 C   0  0  0  0  0  0  0  0  0  0  0  0
   17.6303   -2.1049   -0.3504 C   0  0  2  0  0  0  0  0  0  0  0  0
   17.5027   -3.5604   -0.7292 C   0  0  0  0  0  0  0  0  0  0  0  0
   16.3575   -1.5225    0.0969 C   0  0  0  0  0  0  0  0  0  0  0  0
   15.6050   -0.7349    0.9300 C   0  0  0  0  0  0  0  0  0  0  0  0
   14.9907   -1.3913   -0.0564 O   0  0  0  0  0  0  0  0  0  0  0  0
  1  2  2  0
  2  3  1  0
  4  3  1  1
  4  5  1  0
  5  6  1  0
  6  7  1  0
  6  8  1  0
  6  9  1  0
  9 10  1  0
 10 11  1  0
 11 12  1  0
 12 13  2  3
 13 14  1  0
 14 15  1  0
 15 16  1  6
 15 17  1  0
 17 18  2  3
 18 19  1  0
 19 20  2  3
 18 21  1  0
 21 22  1  0
 22 23  1  0
 24 23  1  6
 24 25  1  0
 25 26  2  3
 26 27  1  0
 27 28  1  0
 28 29  2  0
 29 30  2  0
 30 31  1  0
 31 32  1  1
 31 33  1  0
 33 34  1  0
 34 35  1  6
 34 36  1  0
 36 37  1  0
 37 38  1  6
 38 39  1  0
 39 40  1  6
 39 41  1  0
 41 42  1  6
 42 43  2  0
 43 44  1  0
 44 45  1  0
 39 46  1  0
 46 47  1  0
 47 48  1  0
 48 49  2  3
 49 50  1  0
 50 51  1  0
 51 52  1  6
 51 53  1  0
 53 54  2  0
 54 55  1  0
 11  4  1  0
 33 20  1  1
 37 24  1  0
 41 28  1  0
 43 30  1  0
 55 53  1  0
M  RAD  3   5   2  11   2  40   3
M  END
>  <docking_score>  (2) 
27.957999999999998

$$$$
