
     RDKit          3D

 17 17  0  0  0  0  0  0  0  0999 V2000
   14.5730   -6.5063   -4.9745 C   0  0  0  0  0  0  0  0  0  0  0  0
   16.0532   -6.7095   -4.7855 C   0  0  1  0  0  0  0  0  0  0  0  0
   16.7757   -6.7284   -6.1396 C   0  0  0  0  0  0  0  0  0  0  0  0
   18.0762   -7.4907   -5.8534 C   0  0  2  0  0  0  0  0  0  0  0  0
   17.6276   -8.7411   -5.3609 O   0  0  0  0  0  0  0  0  0  0  0  0
   18.7860   -6.7273   -4.7408 C   0  0  2  0  0  0  0  0  0  0  0  0
   19.0231   -7.5068   -3.6244 O   0  0  0  0  0  0  0  0  0  0  0  0
   18.1109   -5.4168   -4.4276 C   0  0  1  0  0  0  0  0  0  0  0  0
   17.9274   -4.7652   -5.6687 O   0  0  0  0  0  0  0  0  0  0  0  0
   16.6932   -5.6662   -3.9004 C   0  0  1  0  0  0  0  0  0  0  0  0
   15.9667   -4.4275   -4.0784 N   0  0  0  0  0  0  0  0  0  0  0  0
   16.1488   -3.5314   -2.9642 C   0  0  0  0  0  3  0  0  0  0  0  0
   16.0366   -2.1113   -3.4272 C   0  0  0  0  0  0  0  0  0  0  0  0
   15.0445   -2.0005   -4.3951 O   0  0  0  0  0  0  0  0  0  0  0  0
   15.3442   -0.9735   -5.3058 C   0  0  0  0  0  0  0  0  0  0  0  0
   14.8632   -1.3204   -6.5781 O   0  0  0  0  0  0  0  0  0  0  0  0
   15.3129   -2.5298   -6.8554 O   0  0  0  0  0  0  0  0  0  0  0  0
  2  1  1  6
  2  3  1  0
  3  4  1  0
  4  5  1  1
  4  6  1  0
  6  7  1  1
  6  8  1  0
  8  9  1  6
  8 10  1  0
 10 11  1  6
 11 12  1  0
 12 13  1  0
 13 14  1  0
 14 15  1  0
 15 16  1  0
 16 17  1  0
 10  2  1  0
M  RAD  1  12   2
M  END
>  <docking_score>  (1) 
-3.645

$$$$

     RDKit          3D

 17 17  0  0  0  0  0  0  0  0999 V2000
   18.6842   -1.5655   -4.6126 C   0  0  0  0  0  0  0  0  0  0  0  0
   18.3336   -2.9025   -4.0146 C   0  0  1  0  0  0  0  0  0  0  0  0
   18.7910   -2.9793   -2.5514 C   0  0  0  0  0  0  0  0  0  0  0  0
   18.9086   -4.4849   -2.2800 C   0  0  2  0  0  0  0  0  0  0  0  0
   19.8369   -4.9273   -3.2546 O   0  0  0  0  0  0  0  0  0  0  0  0
   17.5366   -5.0827   -2.5715 C   0  0  2  0  0  0  0  0  0  0  0  0
   17.5770   -6.0660   -3.5418 O   0  0  0  0  0  0  0  0  0  0  0  0
   16.4964   -4.0235   -2.8308 C   0  0  1  0  0  0  0  0  0  0  0  0
   16.6063   -3.0989   -1.7672 O   0  0  0  0  0  0  0  0  0  0  0  0
   16.8593   -3.2235   -4.0871 C   0  0  1  0  0  0  0  0  0  0  0  0
   16.1294   -1.9770   -4.0035 N   0  0  0  0  0  0  0  0  0  0  0  0
   14.7796   -2.1094   -4.4914 C   0  0  0  0  0  3  0  0  0  0  0  0
   14.7612   -2.9730   -5.7151 C   0  0  0  0  0  0  0  0  0  0  0  0
   13.8829   -4.0362   -5.5373 O   0  0  0  0  0  0  0  0  0  0  0  0
   14.1106   -5.0407   -6.4929 C   0  0  0  0  0  0  0  0  0  0  0  0
   15.4808   -5.1016   -6.7912 O   0  0  0  0  0  0  0  0  0  0  0  0
   15.9183   -6.2851   -6.4042 O   0  0  0  0  0  0  0  0  0  0  0  0
  2  1  1  1
  2  3  1  0
  3  4  1  0
  4  5  1  6
  4  6  1  0
  6  7  1  6
  6  8  1  0
  8  9  1  1
  8 10  1  0
 10 11  1  1
 11 12  1  0
 12 13  1  0
 13 14  1  0
 14 15  1  0
 15 16  1  0
 16 17  1  0
 10  2  1  0
M  RAD  1  12   2
M  END
>  <docking_score>  (2) 
-3.6139999999999999

$$$$

     RDKit          3D

 17 17  0  0  0  0  0  0  0  0999 V2000
   16.5305   -4.2597   -1.5960 C   0  0  0  0  0  0  0  0  0  0  0  0
   17.6727   -3.5905   -2.3143 C   0  0  1  0  0  0  0  0  0  0  0  0
   18.8870   -3.4460   -1.3866 C   0  0  0  0  0  0  0  0  0  0  0  0
   19.6913   -2.2966   -2.0078 C   0  0  2  0  0  0  0  0  0  0  0  0
   18.7744   -1.2165   -2.0186 O   0  0  0  0  0  0  0  0  0  0  0  0
   20.0048   -2.7159   -3.4397 C   0  0  2  0  0  0  0  0  0  0  0  0
   19.5225   -1.8217   -4.3766 O   0  0  0  0  0  0  0  0  0  0  0  0
   19.6133   -4.1451   -3.7142 C   0  0  1  0  0  0  0  0  0  0  0  0
   20.1647   -4.9106   -2.6614 O   0  0  0  0  0  0  0  0  0  0  0  0
   18.0963   -4.3136   -3.5710 C   0  0  1  0  0  0  0  0  0  0  0  0
   17.8587   -5.7268   -3.3710 N   0  0  0  0  0  0  0  0  0  0  0  0
   17.1806   -6.3233   -4.4944 C   0  0  0  0  0  3  0  0  0  0  0  0
   16.4001   -5.2796   -5.2328 C   0  0  0  0  0  0  0  0  0  0  0  0
   15.0395   -5.4437   -4.9973 O   0  0  0  0  0  0  0  0  0  0  0  0
   14.2919   -4.4608   -5.6673 C   0  0  0  0  0  0  0  0  0  0  0  0
   13.1131   -5.0317   -6.1720 O   0  0  0  0  0  0  0  0  0  0  0  0
   13.4102   -5.5986   -7.3263 O   0  0  0  0  0  0  0  0  0  0  0  0
  2  1  1  1
  2  3  1  0
  3  4  1  0
  4  5  1  6
  4  6  1  0
  6  7  1  6
  6  8  1  0
  8  9  1  1
  8 10  1  0
 10 11  1  1
 11 12  1  0
 12 13  1  0
 13 14  1  0
 14 15  1  0
 15 16  1  0
 16 17  1  0
 10  2  1  0
M  RAD  1  12   2
M  END
>  <docking_score>  (3) 
-3.496

$$$$
