
     RDKit          3D

 28 30  0  0  0  0  0  0  0  0999 V2000
   19.8978   -5.2885   -3.2274 C   0  0  0  0  0  0  0  0  0  0  0  0
   19.5110   -6.6766   -3.7111 C   0  0  0  0  0  0  0  0  0  0  0  0
   20.7582   -7.5292   -3.6472 C   0  0  0  0  0  0  0  0  0  0  0  0
   19.1033   -6.5742   -5.1659 C   0  0  0  0  0  0  0  0  0  0  0  0
   17.8739   -7.4253   -5.3893 C   0  0  0  0  0  0  0  0  0  0  0  0
   16.6601   -6.5811   -5.0658 C   0  0  0  0  0  0  0  0  0  0  0  0
   16.3491   -5.6969   -6.2340 C   0  0  1  0  0  0  0  0  0  0  0  0
   15.3148   -6.2571   -7.1615 C   0  0  0  0  0  0  0  0  0  0  0  0
   16.1274   -4.2638   -5.8680 C   0  0  1  0  0  0  0  0  0  0  0  0
   16.7453   -3.8711   -4.5577 C   0  0  0  0  0  0  0  0  0  0  0  0
   15.7607   -3.2557   -3.6064 C   0  0  0  0  0  0  0  0  0  0  0  0
   16.0438   -1.8141   -3.2987 C   0  0  1  0  0  0  0  0  0  0  0  0
   16.1387   -1.5978   -1.8039 C   0  0  0  0  0  0  0  0  0  0  0  0
   17.2147   -1.2548   -4.0486 C   0  0  0  0  0  0  0  0  0  0  0  0
   18.5061   -1.7447   -3.4298 C   0  0  2  0  0  0  0  0  0  0  0  0
   18.4390   -1.6827   -1.9985 N   0  0  0  0  0  0  0  0  0  0  0  0
   19.6644   -0.8435   -3.8741 C   0  0  0  0  0  0  0  0  0  0  0  0
   19.4216   -0.2954   -5.2667 C   0  0  1  0  0  0  0  0  0  0  0  0
   20.2760    0.9349   -5.5098 C   0  0  1  0  0  0  0  0  0  0  0  0
   21.1041    1.3714   -4.3209 C   0  0  0  0  0  0  0  0  0  0  0  0
   21.1620    0.1516   -6.4782 C   0  0  0  0  0  0  0  0  0  0  0  0
   20.3276   -1.0738   -6.2059 C   0  0  2  0  0  0  0  0  0  0  0  0
   19.6101   -1.5232   -7.4411 C   0  0  0  0  0  0  0  0  0  0  0  0
   18.2788   -1.8142   -7.2252 O   0  0  0  0  0  0  0  0  0  0  0  0
   18.0777   -3.0593   -6.7433 N   0  0  0  0  0  0  0  0  0  0  0  0
   17.7760   -4.0351   -7.8284 C   0  0  0  0  0  3  0  0  0  0  0  0
   16.6984   -3.3974   -6.9732 C   0  0  1  0  0  0  0  0  0  0  0  0
   15.7943   -2.3650   -7.5910 C   0  0  0  0  0  0  0  0  0  0  0  0
  1  2  1  0
  2  3  1  0
  2  4  1  0
  4  5  1  0
  5  6  1  0
  6  7  1  0
  7  8  1  1
  7  9  1  0
  9 10  1  1
 10 11  1  0
 11 12  1  0
 12 13  1  1
 12 14  1  0
 14 15  1  0
 15 16  1  1
 15 17  1  0
 18 17  1  1
 18 19  1  0
 19 20  1  1
 19 21  1  0
 22 21  1  6
 22 23  1  0
 23 24  1  0
 24 25  1  0
 25 26  1  0
 26 27  1  0
 27 28  1  6
 27  9  1  0
 22 18  1  0
 27 25  1  0
M  RAD  1  26   2
M  END
>  <docking_score>  (1) 
-4.7210000000000001

$$$$

     RDKit          3D

 28 30  0  0  0  0  0  0  0  0999 V2000
   18.4018   -9.3510   -7.7427 C   0  0  0  0  0  0  0  0  0  0  0  0
   18.0276   -9.4683   -6.2742 C   0  0  0  0  0  0  0  0  0  0  0  0
   16.9126  -10.4857   -6.1832 C   0  0  0  0  0  0  0  0  0  0  0  0
   17.4671   -8.1366   -5.8208 C   0  0  0  0  0  0  0  0  0  0  0  0
   18.5905   -7.3052   -5.2440 C   0  0  0  0  0  0  0  0  0  0  0  0
   18.0347   -6.5220   -4.0742 C   0  0  0  0  0  0  0  0  0  0  0  0
   19.0975   -5.6113   -3.5411 C   0  0  1  0  0  0  0  0  0  0  0  0
   20.4347   -6.2669   -3.3803 C   0  0  0  0  0  0  0  0  0  0  0  0
   19.1496   -4.2785   -4.2177 C   0  0  1  0  0  0  0  0  0  0  0  0
   18.4019   -4.2302   -5.5183 C   0  0  0  0  0  0  0  0  0  0  0  0
   19.2490   -3.7582   -6.6641 C   0  0  0  0  0  0  0  0  0  0  0  0
   18.8036   -2.4452   -7.2390 C   0  0  1  0  0  0  0  0  0  0  0  0
   18.5789   -2.5664   -8.7307 C   0  0  0  0  0  0  0  0  0  0  0  0
   17.6411   -1.8329   -6.5178 C   0  0  0  0  0  0  0  0  0  0  0  0
   16.3626   -2.5478   -6.8984 C   0  0  2  0  0  0  0  0  0  0  0  0
   16.3185   -2.7923   -8.3109 N   0  0  0  0  0  0  0  0  0  0  0  0
   15.1566   -1.6682   -6.5474 C   0  0  0  0  0  0  0  0  0  0  0  0
   15.4453   -0.8136   -5.3288 C   0  0  1  0  0  0  0  0  0  0  0  0
   14.4939    0.3671   -5.2705 C   0  0  1  0  0  0  0  0  0  0  0  0
   13.5422    0.4674   -6.4427 C   0  0  0  0  0  0  0  0  0  0  0  0
   13.7625   -0.2565   -4.0821 C   0  0  0  0  0  0  0  0  0  0  0  0
   14.6914   -1.4405   -4.1679 C   0  0  2  0  0  0  0  0  0  0  0  0
   15.5380   -1.5521   -2.9377 C   0  0  0  0  0  0  0  0  0  0  0  0
   16.8721   -1.7747   -3.2101 O   0  0  0  0  0  0  0  0  0  0  0  0
   17.1593   -3.0743   -3.4373 N   0  0  0  0  0  0  0  0  0  0  0  0
   17.6341   -3.7641   -2.2048 C   0  0  0  0  0  3  0  0  0  0  0  0
   18.5782   -3.2421   -3.2703 C   0  0  1  0  0  0  0  0  0  0  0  0
   19.4189   -2.0309   -2.9683 C   0  0  0  0  0  0  0  0  0  0  0  0
  1  2  1  0
  2  3  1  0
  2  4  1  0
  4  5  1  0
  5  6  1  0
  6  7  1  0
  7  8  1  6
  7  9  1  0
  9 10  1  6
 10 11  1  0
 11 12  1  0
 12 13  1  6
 12 14  1  0
 14 15  1  0
 15 16  1  6
 15 17  1  0
 18 17  1  6
 18 19  1  0
 19 20  1  6
 19 21  1  0
 22 21  1  1
 22 23  1  0
 23 24  1  0
 24 25  1  0
 25 26  1  0
 26 27  1  0
 27 28  1  1
 27  9  1  0
 22 18  1  0
 27 25  1  0
M  RAD  1  26   2
M  END
>  <docking_score>  (2) 
-4.0499999999999998

$$$$

     RDKit          3D

 28 30  0  0  0  0  0  0  0  0999 V2000
    5.9472   11.7176   11.6066 C   0  0  0  0  0  0  0  0  0  0  0  0
    5.1883   10.4815   12.0611 C   0  0  0  0  0  0  0  0  0  0  0  0
    6.1734    9.3342   12.0602 C   0  0  0  0  0  0  0  0  0  0  0  0
    4.1267   10.1711   11.0268 C   0  0  0  0  0  0  0  0  0  0  0  0
    4.7899   10.0208    9.6765 C   0  0  0  0  0  0  0  0  0  0  0  0
    3.7217   10.1746    8.6153 C   0  0  0  0  0  0  0  0  0  0  0  0
    4.1463    9.4437    7.3789 C   0  0  1  0  0  0  0  0  0  0  0  0
    3.6894    8.0180    7.3291 C   0  0  0  0  0  0  0  0  0  0  0  0
    3.9097   10.2042    6.1131 C   0  0  1  0  0  0  0  0  0  0  0  0
    3.8753   11.6933    6.2990 C   0  0  0  0  0  0  0  0  0  0  0  0
    2.6202   12.3215    5.7670 C   0  0  0  0  0  0  0  0  0  0  0  0
    2.8552   13.2406    4.6038 C   0  0  1  0  0  0  0  0  0  0  0  0
    2.2589   14.6048    4.8746 C   0  0  0  0  0  0  0  0  0  0  0  0
    4.2861   13.3023    4.1619 C   0  0  0  0  0  0  0  0  0  0  0  0
    5.0876   14.1519    5.1244 C   0  0  2  0  0  0  0  0  0  0  0  0
    4.3646   15.3391    5.4773 N   0  0  0  0  0  0  0  0  0  0  0  0
    6.3953   14.5929    4.4559 C   0  0  0  0  0  0  0  0  0  0  0  0
    6.8829   13.5450    3.4747 C   0  0  1  0  0  0  0  0  0  0  0  0
    7.8589   14.1559    2.4864 C   0  0  1  0  0  0  0  0  0  0  0  0
    8.0700   15.6455    2.6490 C   0  0  0  0  0  0  0  0  0  0  0  0
    9.0202   13.4097    3.1428 C   0  0  0  0  0  0  0  0  0  0  0  0
    8.0485   12.8330    4.1405 C   0  0  2  0  0  0  0  0  0  0  0  0
    7.9550   11.3446    4.0038 C   0  0  0  0  0  0  0  0  0  0  0  0
    6.6574   10.8761    3.9989 O   0  0  0  0  0  0  0  0  0  0  0  0
    6.1426   10.7217    5.2375 N   0  0  0  0  0  0  0  0  0  0  0  0
    6.2969    9.3258    5.7355 C   0  0  0  0  0  3  0  0  0  0  0  0
    5.0070    9.8451    5.1308 C   0  0  1  0  0  0  0  0  0  0  0  0
    4.5944    9.3592    3.7675 C   0  0  0  0  0  0  0  0  0  0  0  0
  1  2  1  0
  2  3  1  0
  2  4  1  0
  4  5  1  0
  5  6  1  0
  6  7  1  0
  7  8  1  6
  7  9  1  0
  9 10  1  1
 10 11  1  0
 11 12  1  0
 12 13  1  1
 12 14  1  0
 14 15  1  0
 15 16  1  6
 15 17  1  0
 18 17  1  1
 18 19  1  0
 19 20  1  1
 19 21  1  0
 22 21  1  6
 22 23  1  0
 23 24  1  0
 24 25  1  0
 25 26  1  0
 26 27  1  0
 27 28  1  6
 27  9  1  0
 22 18  1  0
 27 25  1  0
M  RAD  1  26   2
M  END
>  <docking_score>  (3) 
-4.0359999999999996

$$$$
