
     RDKit          3D

 34 33  0  0  0  0  0  0  0  0999 V2000
   18.2658   -8.7464   -6.7225 C   0  0  0  0  0  0  0  0  0  0  0  0
   17.4218   -9.5145   -6.0384 C   0  0  0  0  0  0  0  0  0  0  0  0
   17.1516  -10.9253   -6.4870 C   0  0  0  0  0  0  0  0  0  0  0  0
   16.7464   -8.9952   -4.8411 C   0  0  0  0  0  3  0  0  0  0  0  0
   15.5524   -8.1194   -5.1602 C   0  0  0  0  0  0  0  0  0  0  0  0
   15.8007   -6.7602   -4.5873 C   0  0  0  0  0  0  0  0  0  0  0  0
   17.2360   -6.4327   -4.3637 C   0  0  0  0  0  3  0  0  0  0  0  0
   17.6554   -6.3878   -2.9329 C   0  0  0  0  0  0  0  0  0  0  0  0
   17.7187   -4.9178   -2.5097 C   0  0  0  0  0  0  0  0  0  0  0  0
   19.0896   -4.6846   -1.8666 C   0  0  0  0  0  0  0  0  0  0  0  0
   19.6596   -3.4210   -2.4645 C   0  0  0  0  0  0  0  0  0  0  0  0
   21.1265   -3.6117   -2.7993 C   0  0  0  0  0  3  0  0  0  0  0  0
   21.3745   -4.9641   -2.8289 O   0  0  0  0  0  0  0  0  0  0  0  0
   17.7682   -5.3267   -5.2080 C   0  0  0  0  0  0  0  0  0  0  0  0
   19.2764   -5.5527   -5.3521 C   0  0  1  0  0  0  0  0  0  0  0  0
   19.4533   -6.4250   -6.5789 C   0  0  0  0  0  0  0  0  0  0  0  0
   19.4892   -5.4816   -7.7692 C   0  0  0  0  0  3  0  0  0  0  0  0
   18.2372   -4.6334   -7.8372 C   0  0  0  0  0  3  0  0  0  0  0  0
   18.7207   -3.1742   -7.8158 C   0  0  2  0  0  0  0  0  0  0  0  0
   19.9571   -3.0765   -6.9474 C   0  0  0  0  0  0  0  0  0  0  0  0
   17.5810   -2.3675   -7.2879 C   0  0  0  0  0  0  0  0  0  0  0  0
   18.1349   -1.0945   -6.6548 C   0  0  0  0  0  0  0  0  0  0  0  0
   17.2427   -0.5932   -5.5616 C   0  0  1  0  0  0  0  0  0  0  0  0
   15.7856   -0.5897   -5.8979 C   0  0  0  0  0  0  0  0  0  0  0  0
   17.5820   -1.2735   -4.2711 C   0  0  0  0  0  0  0  0  0  0  0  0
   16.4371   -1.2759   -3.3269 C   0  0  2  0  0  0  0  0  0  0  0  0
   16.8063   -1.6002   -2.0115 N   0  0  0  0  0  0  0  0  0  0  0  0
   15.2040   -1.8681   -3.8536 C   0  0  0  0  0  0  0  0  0  0  0  0
   15.4448   -2.8863   -4.9143 C   0  0  1  0  0  0  0  0  0  0  0  0
   15.6849   -4.2750   -4.4222 C   0  0  0  0  0  0  0  0  0  0  0  0
   14.3893   -2.8595   -5.9903 C   0  0  0  0  0  0  0  0  0  0  0  0
   14.0359   -4.2526   -6.4023 C   0  0  0  0  0  0  0  0  0  0  0  0
   12.8454   -4.7581   -5.6117 C   0  0  0  0  0  2  0  0  0  0  0  0
   19.8071   -4.3060   -5.6874 F   0  0  0  0  0  0  0  0  0  0  0  0
  1  2  2  0
  2  3  1  0
  2  4  1  0
  4  5  1  0
  5  6  1  0
  6  7  1  0
  7  8  1  0
  8  9  1  0
  9 10  1  0
 10 11  1  0
 11 12  1  0
 12 13  1  0
  7 14  1  0
 14 15  1  0
 15 16  1  0
 16 17  1  0
 17 18  1  0
 18 19  1  0
 19 20  1  1
 19 21  1  0
 21 22  1  0
 22 23  1  0
 23 24  1  6
 23 25  1  0
 25 26  1  0
 26 27  1  1
 26 28  1  0
 28 29  1  0
 29 30  1  1
 29 31  1  0
 31 32  1  0
 32 33  1  0
 15 34  1  6
M  RAD  6   4   2   7   2  12   2  17   2  18   2  33   3
M  END
>  <docking_score>  (1) 
-1.9770000000000001

$$$$

     RDKit          3D

 34 33  0  0  0  0  0  0  0  0999 V2000
   15.5299   -9.4794   -4.8133 C   0  0  0  0  0  0  0  0  0  0  0  0
   16.5795   -8.8557   -5.3421 C   0  0  0  0  0  0  0  0  0  0  0  0
   17.3748   -9.5123   -6.4380 C   0  0  0  0  0  0  0  0  0  0  0  0
   16.9723   -7.5231   -4.8633 C   0  0  0  0  0  3  0  0  0  0  0  0
   17.7430   -6.7212   -5.8917 C   0  0  0  0  0  0  0  0  0  0  0  0
   19.0147   -6.2488   -5.2617 C   0  0  0  0  0  0  0  0  0  0  0  0
   19.4318   -4.8752   -5.6576 C   0  0  0  0  0  3  0  0  0  0  0  0
   20.6914   -4.3924   -5.0210 C   0  0  0  0  0  0  0  0  0  0  0  0
   20.6986   -4.8795   -3.5695 C   0  0  0  0  0  0  0  0  0  0  0  0
   20.2626   -6.3484   -3.5769 C   0  0  0  0  0  0  0  0  0  0  0  0
   21.2769   -7.1243   -2.7717 C   0  0  0  0  0  0  0  0  0  0  0  0
   21.3735   -8.5500   -3.2798 C   0  0  0  0  0  3  0  0  0  0  0  0
   20.3675   -8.7336   -4.1993 O   0  0  0  0  0  0  0  0  0  0  0  0
   18.3308   -3.8730   -5.7083 C   0  0  0  0  0  0  0  0  0  0  0  0
   18.8954   -2.6134   -6.3725 C   0  0  1  0  0  0  0  0  0  0  0  0
   17.7266   -1.9508   -7.0741 C   0  0  0  0  0  0  0  0  0  0  0  0
   16.9615   -1.1938   -6.0019 C   0  0  0  0  0  3  0  0  0  0  0  0
   15.4663   -1.3062   -6.2096 C   0  0  0  0  0  3  0  0  0  0  0  0
   15.1116   -2.7700   -5.9017 C   0  0  2  0  0  0  0  0  0  0  0  0
   14.4556   -3.3857   -7.1194 C   0  0  0  0  0  0  0  0  0  0  0  0
   14.2066   -2.7365   -4.7150 C   0  0  0  0  0  0  0  0  0  0  0  0
   12.7844   -2.4580   -5.1924 C   0  0  0  0  0  0  0  0  0  0  0  0
   12.2063   -1.2521   -4.5184 C   0  0  1  0  0  0  0  0  0  0  0  0
   12.9529    0.0195   -4.7675 C   0  0  0  0  0  0  0  0  0  0  0  0
   10.7347   -1.1724   -4.7852 C   0  0  0  0  0  0  0  0  0  0  0  0
   10.0362   -0.3168   -3.7940 C   0  0  2  0  0  0  0  0  0  0  0  0
   10.1264   -0.8058   -2.4808 N   0  0  0  0  0  0  0  0  0  0  0  0
    8.7422    0.2104   -4.2369 C   0  0  0  0  0  0  0  0  0  0  0  0
    7.9081   -0.7967   -4.9509 C   0  0  1  0  0  0  0  0  0  0  0  0
    6.7059   -1.2729   -4.2051 C   0  0  0  0  0  0  0  0  0  0  0  0
    7.5507   -0.3627   -6.3498 C   0  0  0  0  0  0  0  0  0  0  0  0
    6.3545   -1.1170   -6.8350 C   0  0  0  0  0  0  0  0  0  0  0  0
    6.4230   -2.5667   -6.3973 C   0  0  0  0  0  2  0  0  0  0  0  0
   19.2434   -1.7646   -5.3204 F   0  0  0  0  0  0  0  0  0  0  0  0
  1  2  2  0
  2  3  1  0
  2  4  1  0
  4  5  1  0
  5  6  1  0
  6  7  1  0
  7  8  1  0
  8  9  1  0
  9 10  1  0
 10 11  1  0
 11 12  1  0
 12 13  1  0
  7 14  1  0
 14 15  1  0
 15 16  1  0
 16 17  1  0
 17 18  1  0
 18 19  1  0
 19 20  1  6
 19 21  1  0
 21 22  1  0
 22 23  1  0
 23 24  1  6
 23 25  1  0
 25 26  1  0
 26 27  1  1
 26 28  1  0
 28 29  1  0
 29 30  1  1
 29 31  1  0
 31 32  1  0
 32 33  1  0
 15 34  1  1
M  RAD  6   4   2   7   2  12   2  17   2  18   2  33   3
M  END
>  <docking_score>  (2) 
-0.83599999999999997

$$$$
