
     RDKit          3D

 30 32  0  0  0  0  0  0  0  0999 V2000
    8.1877   15.4818    6.9780 C   0  0  0  0  0  0  0  0  0  0  0  0
    9.3086   15.4288    7.7899 C   0  0  0  0  0  0  0  0  0  0  0  0
    9.2801   15.5736    9.1458 C   0  0  0  0  0  0  0  0  0  0  0  0
    8.0583   15.7901    9.7805 C   0  0  0  0  0  0  0  0  0  0  0  0
    6.9323   15.8456    8.9863 C   0  0  0  0  0  0  0  0  0  0  0  0
    6.9795   15.6959    7.6078 C   0  0  0  0  0  0  0  0  0  0  0  0
    5.6015   16.0749    9.6185 C   0  0  0  0  0  0  0  0  0  0  0  0
    5.1347   14.8359   10.2491 C   0  0  0  0  0  0  0  0  0  0  0  0
    5.9221   14.1965   11.1287 C   0  0  0  0  0  0  0  0  0  0  0  0
    5.4325   12.9474   11.7533 C   0  0  0  0  0  0  0  0  0  0  0  0
    5.0433   11.9200   11.0360 C   0  0  0  0  0  0  0  0  0  0  0  0
    4.4504   10.4088   11.7897 S   0  0  0  0  0  0  0  0  0  0  0  0
    2.8647   10.4499   12.0082 C   0  0  0  0  0  0  0  0  0  0  0  0
    5.1248   12.0772    9.2461 S   0  0  0  0  0  0  0  0  0  0  0  0
    4.0508   10.8582    8.5557 C   0  0  0  0  0  0  0  0  0  0  0  0
    3.7560   10.6849    7.2900 C   0  0  0  0  0  0  0  0  0  0  0  0
    2.8286    9.6019    6.8965 C   0  0  0  0  0  0  0  0  0  0  0  0
    3.7592    8.0278    7.0218 S   0  0  0  0  0  0  0  0  0  0  0  0
    2.7184    6.6218    6.6342 C   0  0  0  0  0  0  0  0  0  0  0  0
    3.4673    5.5948    5.3363 S   0  0  0  0  0  0  0  0  0  0  0  0
    4.9276    6.4121    4.7750 N   0  0  0  0  0  0  0  0  0  0  0  0
    4.4215   11.7023    5.9720 S   0  0  0  0  0  0  0  0  0  0  0  0
    6.0534   12.5195    6.0584 C   0  0  0  0  0  0  0  0  0  0  0  0
    3.8943   11.5735    4.4047 C   0  0  0  0  0  0  0  0  0  0  0  0
    4.7678   12.0617    3.3935 N   0  0  0  0  0  0  0  0  0  0  0  0
    4.2287   12.5820    2.1397 C   0  0  0  0  0  0  0  0  0  0  0  0
    6.1897   12.0170    3.6627 C   0  0  0  0  0  0  0  0  0  0  0  0
    6.5272   12.8628    4.8669 C   0  0  0  0  0  0  0  0  0  0  0  0
    7.5558   14.2710    4.5576 S   0  0  0  0  0  0  0  0  0  0  0  0
    8.2167   15.3340    5.5544 C   0  0  0  0  0  0  0  0  0  0  0  0
  1  2  2  0
  2  3  1  0
  3  4  2  0
  4  5  1  0
  5  6  2  0
  5  7  1  0
  7  8  1  0
  8  9  2  3
  9 10  1  0
 10 11  2  3
 11 12  1  0
 12 13  2  0
 11 14  1  0
 14 15  1  0
 15 16  2  3
 16 17  1  0
 17 18  1  0
 18 19  1  0
 19 20  1  0
 20 21  1  0
 16 22  1  0
 22 23  1  0
 22 24  2  0
 24 25  1  0
 25 26  1  0
 25 27  1  0
 27 28  1  0
 28 29  1  0
 29 30  2  3
  6  1  1  0
 30  1  1  0
 23 28  2  0
M  END
>  <docking_score>  (1) 
-3.2480000000000002

$$$$

     RDKit          3D

 30 32  0  0  0  0  0  0  0  0999 V2000
    3.2614    7.4678    9.0145 C   0  0  0  0  0  0  0  0  0  0  0  0
    2.2575    7.2610    9.9461 C   0  0  0  0  0  0  0  0  0  0  0  0
    2.2576    7.7909   11.2029 C   0  0  0  0  0  0  0  0  0  0  0  0
    3.3240    8.5951   11.6012 C   0  0  0  0  0  0  0  0  0  0  0  0
    4.3320    8.8110   10.6853 C   0  0  0  0  0  0  0  0  0  0  0  0
    4.3157    8.2641    9.4103 C   0  0  0  0  0  0  0  0  0  0  0  0
    5.4944    9.6647   11.0640 C   0  0  0  0  0  0  0  0  0  0  0  0
    5.1050   11.0778   11.0164 C   0  0  0  0  0  0  0  0  0  0  0  0
    4.0264   11.4965   11.6974 C   0  0  0  0  0  0  0  0  0  0  0  0
    3.6501   12.9264   11.6357 C   0  0  0  0  0  0  0  0  0  0  0  0
    3.4268   13.5359   10.4954 C   0  0  0  0  0  0  0  0  0  0  0  0
    2.9721   15.2652   10.4188 S   0  0  0  0  0  0  0  0  0  0  0  0
    3.5475   16.0750   11.6747 C   0  0  0  0  0  0  0  0  0  0  0  0
    3.5930   12.5674    8.9888 S   0  0  0  0  0  0  0  0  0  0  0  0
    3.8118   13.6983    7.6512 C   0  0  0  0  0  0  0  0  0  0  0  0
    4.0503   13.4062    6.3954 C   0  0  0  0  0  0  0  0  0  0  0  0
    4.2057   14.4962    5.4077 C   0  0  0  0  0  0  0  0  0  0  0  0
    5.7387   15.4009    5.8447 S   0  0  0  0  0  0  0  0  0  0  0  0
    7.1728   14.3296    5.7688 C   0  0  0  0  0  0  0  0  0  0  0  0
    8.4831   15.0661    4.7485 S   0  0  0  0  0  0  0  0  0  0  0  0
    9.0131   13.8478    3.5864 N   0  0  0  0  0  0  0  0  0  0  0  0
    4.2043   11.7280    5.7831 S   0  0  0  0  0  0  0  0  0  0  0  0
    3.3477   10.3002    6.5355 C   0  0  0  0  0  0  0  0  0  0  0  0
    4.6808   11.3948    4.2298 C   0  0  0  0  0  0  0  0  0  0  0  0
    4.3352   10.1144    3.7151 N   0  0  0  0  0  0  0  0  0  0  0  0
    5.1729    9.4736    2.7047 C   0  0  0  0  0  0  0  0  0  0  0  0
    3.1349    9.4906    4.2312 C   0  0  0  0  0  0  0  0  0  0  0  0
    3.2564    9.2583    5.7180 C   0  0  0  0  0  0  0  0  0  0  0  0
    3.2630    7.5651    6.2371 S   0  0  0  0  0  0  0  0  0  0  0  0
    3.2645    6.9091    7.6965 C   0  0  0  0  0  0  0  0  0  0  0  0
  1  2  2  0
  2  3  1  0
  3  4  2  0
  4  5  1  0
  5  6  2  0
  5  7  1  0
  7  8  1  0
  8  9  2  3
  9 10  1  0
 10 11  2  3
 11 12  1  0
 12 13  2  0
 11 14  1  0
 14 15  1  0
 15 16  2  3
 16 17  1  0
 17 18  1  0
 18 19  1  0
 19 20  1  0
 20 21  1  0
 16 22  1  0
 22 23  1  0
 22 24  2  0
 24 25  1  0
 25 26  1  0
 25 27  1  0
 27 28  1  0
 28 29  1  0
 29 30  2  3
  6  1  1  0
 30  1  1  0
 23 28  2  0
M  END
>  <docking_score>  (2) 
-3.1070000000000002

$$$$

     RDKit          3D

 30 32  0  0  0  0  0  0  0  0999 V2000
    3.7410    9.3091   10.7196 C   0  0  0  0  0  0  0  0  0  0  0  0
    2.7256    9.9179   11.4386 C   0  0  0  0  0  0  0  0  0  0  0  0
    2.8432   11.1287   12.0554 C   0  0  0  0  0  0  0  0  0  0  0  0
    4.0515   11.8187   11.9732 C   0  0  0  0  0  0  0  0  0  0  0  0
    5.0728   11.2261   11.2610 C   0  0  0  0  0  0  0  0  0  0  0  0
    4.9358    9.9933   10.6392 C   0  0  0  0  0  0  0  0  0  0  0  0
    6.3847   11.9250   11.1439 C   0  0  0  0  0  0  0  0  0  0  0  0
    6.2816   13.0061   10.1584 C   0  0  0  0  0  0  0  0  0  0  0  0
    5.3140   13.9290   10.2783 C   0  0  0  0  0  0  0  0  0  0  0  0
    5.2270   15.0114    9.2728 C   0  0  0  0  0  0  0  0  0  0  0  0
    5.1168   14.7586    7.9900 C   0  0  0  0  0  0  0  0  0  0  0  0
    5.0118   16.0663    6.7726 S   0  0  0  0  0  0  0  0  0  0  0  0
    3.6380   15.9908    5.9534 C   0  0  0  0  0  0  0  0  0  0  0  0
    5.0729   13.0333    7.4836 S   0  0  0  0  0  0  0  0  0  0  0  0
    5.4971   12.9709    5.7711 C   0  0  0  0  0  0  0  0  0  0  0  0
    5.6604   11.9002    5.0321 C   0  0  0  0  0  0  0  0  0  0  0  0
    6.0178   12.0447    3.6041 C   0  0  0  0  0  0  0  0  0  0  0  0
    6.2654   13.8338    3.2921 S   0  0  0  0  0  0  0  0  0  0  0  0
    7.4816   14.1097    2.0056 C   0  0  0  0  0  0  0  0  0  0  0  0
    8.7763   15.2536    2.5672 S   0  0  0  0  0  0  0  0  0  0  0  0
    9.8900   14.3478    3.5942 N   0  0  0  0  0  0  0  0  0  0  0  0
    5.4736   10.2301    5.6571 S   0  0  0  0  0  0  0  0  0  0  0  0
    4.3596    9.7912    7.0372 C   0  0  0  0  0  0  0  0  0  0  0  0
    5.8590    8.8981    4.7468 C   0  0  0  0  0  0  0  0  0  0  0  0
    5.2620    7.6655    5.1316 N   0  0  0  0  0  0  0  0  0  0  0  0
    5.9462    6.4011    4.8740 C   0  0  0  0  0  0  0  0  0  0  0  0
    3.9674    7.7250    5.7773 C   0  0  0  0  0  0  0  0  0  0  0  0
    4.0560    8.4994    7.0703 C   0  0  0  0  0  0  0  0  0  0  0  0
    3.7333    7.5763    8.5469 S   0  0  0  0  0  0  0  0  0  0  0  0
    3.6202    8.0366   10.0752 C   0  0  0  0  0  0  0  0  0  0  0  0
  1  2  2  0
  2  3  1  0
  3  4  2  0
  4  5  1  0
  5  6  2  0
  5  7  1  0
  7  8  1  0
  8  9  2  3
  9 10  1  0
 10 11  2  3
 11 12  1  0
 12 13  2  0
 11 14  1  0
 14 15  1  0
 15 16  2  3
 16 17  1  0
 17 18  1  0
 18 19  1  0
 19 20  1  0
 20 21  1  0
 16 22  1  0
 22 23  1  0
 22 24  2  0
 24 25  1  0
 25 26  1  0
 25 27  1  0
 27 28  1  0
 28 29  1  0
 29 30  2  3
  6  1  1  0
 30  1  1  0
 23 28  2  0
M  END
>  <docking_score>  (3) 
-3.0379999999999998

$$$$
