
     RDKit          3D

 34 36  0  0  0  0  0  0  0  0999 V2000
    5.6153   13.3918    4.3194 C   0  0  0  0  0  0  0  0  0  0  0  0
    5.8683   13.3001    5.6215 C   0  0  0  0  0  0  0  0  0  0  0  0
    6.8152   14.2607    6.2577 C   0  0  0  0  0  0  0  0  0  0  0  0
    5.2494   12.2727    6.5039 C   0  0  0  0  0  0  0  0  0  0  0  0
    4.1258   12.8976    7.2887 C   0  0  0  0  0  0  0  0  0  0  0  0
    3.9835   12.3441    8.6721 C   0  0  2  0  0  0  0  0  0  0  0  0
    4.5239   13.2161    9.7492 C   0  0  0  0  0  3  0  0  0  0  0  0
    5.2481   14.4308    9.2704 C   0  0  0  0  0  0  0  0  0  0  0  0
    5.1962   12.4852   10.8601 C   0  0  0  0  0  0  0  0  0  0  0  0
    4.2650   12.4073   12.0738 C   0  0  0  0  0  0  0  0  0  0  0  0
    4.5202   11.1591   12.8624 C   0  0  0  0  0  0  0  0  0  0  0  0
    5.5181   10.3816   12.2621 O   0  0  0  0  0  0  0  0  0  0  0  0
    4.9539    9.1668   11.8406 C   0  0  0  0  0  0  0  0  0  0  0  0
    4.8682    9.1421   10.3237 C   0  0  0  0  0  0  0  0  0  0  0  0
    3.8369   10.1507    9.8668 C   0  0  0  0  0  0  0  0  0  0  0  0
    4.4554   10.9292    8.7098 C   0  0  1  0  0  0  0  0  0  0  0  0
    3.9745   10.2462    7.4256 C   0  0  0  0  0  0  0  0  0  0  0  0
    2.6567    9.5344    7.6629 C   0  0  0  0  0  3  0  0  0  0  0  0
    2.8517    8.0318    7.4620 C   0  0  0  0  0  3  0  0  0  0  0  0
    4.1359    7.7901    6.6667 C   0  0  0  0  0  3  0  0  0  0  0  0
    3.7417    7.3237    5.2824 C   0  0  0  0  0  0  0  0  0  0  0  0
    3.9508    8.4587    4.2963 C   0  0  0  0  0  0  0  0  0  0  0  0
    5.3922    8.8918    4.3145 C   0  0  0  0  0  0  0  0  0  0  0  0
    5.4948   10.2054    3.5478 C   0  0  1  0  0  0  0  0  0  0  0  0
    5.1059    9.9270    2.0977 C   0  0  0  0  0  0  0  0  0  0  0  0
    4.5074   11.1632    4.1954 C   0  0  2  0  0  0  0  0  0  0  0  0
    3.0898   10.6987    3.8439 C   0  0  0  0  0  0  0  0  0  0  0  0
    4.7092   12.5125    3.5806 C   0  0  2  0  0  0  0  0  0  0  0  0
    5.0749   12.3272    2.1361 C   0  0  0  0  0  0  0  0  0  0  0  0
    6.3269   13.0039    1.7212 C   0  0  0  0  0  0  0  0  0  0  0  0
    7.5186   12.7119    2.5777 C   0  0  0  0  0  0  0  0  0  0  0  0
    7.7814   13.9712    3.4142 C   0  0  0  0  0  3  0  0  0  0  0  0
    6.4067   14.5366    3.7408 C   0  0  2  0  0  0  0  0  0  0  0  0
    6.5957   15.6356    4.7693 C   0  0  0  0  0  0  0  0  0  0  0  0
  1  2  2  3
  2  3  1  0
  2  4  1  0
  4  5  1  0
  6  5  1  6
  6  7  1  0
  7  8  1  0
  7  9  1  0
  9 10  1  0
 10 11  1  0
 11 12  1  0
 12 13  1  0
 13 14  1  0
 14 15  1  0
 16 15  1  1
 16 17  1  0
 17 18  1  0
 18 19  1  0
 19 20  1  0
 20 21  1  0
 21 22  1  0
 22 23  1  0
 23 24  1  0
 24 25  1  6
 24 26  1  0
 26 27  1  6
 26 28  1  0
 28 29  1  6
 29 30  1  0
 30 31  1  0
 31 32  1  0
 32 33  1  0
 33 34  1  1
 28  1  1  0
 33  1  1  0
 16  6  1  0
M  RAD  5   7   2  18   2  19   2  20   2  32   2
M  END
>  <docking_score>  (1) 
-6.9610000000000003

$$$$

     RDKit          3D

 34 36  0  0  0  0  0  0  0  0999 V2000
    5.4331   12.5979    4.2053 C   0  0  0  0  0  0  0  0  0  0  0  0
    5.7389   12.8010    5.4833 C   0  0  0  0  0  0  0  0  0  0  0  0
    6.7412   13.8446    5.8443 C   0  0  0  0  0  0  0  0  0  0  0  0
    5.1273   12.0319    6.6021 C   0  0  0  0  0  0  0  0  0  0  0  0
    4.0581   12.8661    7.2577 C   0  0  0  0  0  0  0  0  0  0  0  0
    3.9585   12.6551    8.7362 C   0  0  2  0  0  0  0  0  0  0  0  0
    4.5710   13.7311    9.5604 C   0  0  0  0  0  3  0  0  0  0  0  0
    5.3109   14.7716    8.7864 C   0  0  0  0  0  0  0  0  0  0  0  0
    5.2677   13.2519   10.7873 C   0  0  0  0  0  0  0  0  0  0  0  0
    4.3876   13.4950   12.0172 C   0  0  0  0  0  0  0  0  0  0  0  0
    4.6381   12.4547   13.0661 C   0  0  0  0  0  0  0  0  0  0  0  0
    5.5850   11.5201   12.6298 O   0  0  0  0  0  0  0  0  0  0  0  0
    4.9664   10.2641   12.5234 C   0  0  0  0  0  0  0  0  0  0  0  0
    4.8149    9.8913   11.0582 C   0  0  0  0  0  0  0  0  0  0  0  0
    3.7963   10.8065   10.4143 C   0  0  0  0  0  0  0  0  0  0  0  0
    4.3880   11.2699    9.0869 C   0  0  1  0  0  0  0  0  0  0  0  0
    3.8317   10.3272    8.0151 C   0  0  0  0  0  0  0  0  0  0  0  0
    2.5042    9.7429    8.4575 C   0  0  0  0  0  3  0  0  0  0  0  0
    2.6443    8.2282    8.6065 C   0  0  0  0  0  3  0  0  0  0  0  0
    3.8851    7.7575    7.8457 C   0  0  0  0  0  3  0  0  0  0  0  0
    3.4178    6.9986    6.6231 C   0  0  0  0  0  0  0  0  0  0  0  0
    3.6189    7.8644    5.3925 C   0  0  0  0  0  0  0  0  0  0  0  0
    5.0724    8.2323    5.2591 C   0  0  0  0  0  0  0  0  0  0  0  0
    5.1821    9.3268    4.2038 C   0  0  1  0  0  0  0  0  0  0  0  0
    4.7229    8.7351    2.8731 C   0  0  0  0  0  0  0  0  0  0  0  0
    4.2533   10.4473    4.6436 C   0  0  2  0  0  0  0  0  0  0  0  0
    2.8083    9.9707    4.4596 C   0  0  0  0  0  0  0  0  0  0  0  0
    4.4697   11.6079    3.7241 C   0  0  2  0  0  0  0  0  0  0  0  0
    4.7671   11.0779    2.3511 C   0  0  0  0  0  0  0  0  0  0  0  0
    6.0202   11.5895    1.7465 C   0  0  0  0  0  0  0  0  0  0  0  0
    7.2381   11.4571    2.6057 C   0  0  0  0  0  0  0  0  0  0  0  0
    7.5751   12.8648    3.1154 C   0  0  0  0  0  3  0  0  0  0  0  0
    6.2336   13.5447    3.3483 C   0  0  2  0  0  0  0  0  0  0  0  0
    6.5002   14.8440    4.0845 C   0  0  0  0  0  0  0  0  0  0  0  0
  1  2  2  3
  2  3  1  0
  2  4  1  0
  4  5  1  0
  6  5  1  6
  6  7  1  0
  7  8  1  0
  7  9  1  0
  9 10  1  0
 10 11  1  0
 11 12  1  0
 12 13  1  0
 13 14  1  0
 14 15  1  0
 16 15  1  1
 16 17  1  0
 17 18  1  0
 18 19  1  0
 19 20  1  0
 20 21  1  0
 21 22  1  0
 22 23  1  0
 23 24  1  0
 24 25  1  6
 24 26  1  0
 26 27  1  6
 26 28  1  0
 28 29  1  6
 29 30  1  0
 30 31  1  0
 31 32  1  0
 32 33  1  0
 33 34  1  1
 28  1  1  0
 33  1  1  0
 16  6  1  0
M  RAD  5   7   2  18   2  19   2  20   2  32   2
M  END
>  <docking_score>  (2) 
-6.6529999999999996

$$$$

     RDKit          3D

 34 36  0  0  0  0  0  0  0  0999 V2000
    4.3977   11.3617   10.8749 C   0  0  0  0  0  0  0  0  0  0  0  0
    4.4931   10.3366   10.0334 C   0  0  0  0  0  0  0  0  0  0  0  0
    4.8769    8.9916   10.5507 C   0  0  0  0  0  0  0  0  0  0  0  0
    4.2340   10.4526    8.5716 C   0  0  0  0  0  0  0  0  0  0  0  0
    2.8612    9.9153    8.2621 C   0  0  0  0  0  0  0  0  0  0  0  0
    2.7755    9.2226    6.9380 C   0  0  2  0  0  0  0  0  0  0  0  0
    2.7696    7.7371    7.0128 C   0  0  0  0  0  3  0  0  0  0  0  0
    2.9952    7.1756    8.3777 C   0  0  0  0  0  0  0  0  0  0  0  0
    3.5284    7.0584    5.9247 C   0  0  0  0  0  0  0  0  0  0  0  0
    2.5584    6.5137    4.8718 C   0  0  0  0  0  0  0  0  0  0  0  0
    3.1920    6.5110    3.5139 C   0  0  0  0  0  0  0  0  0  0  0  0
    4.4886    7.0370    3.5641 O   0  0  0  0  0  0  0  0  0  0  0  0
    4.5259    8.2230    2.8134 C   0  0  0  0  0  0  0  0  0  0  0  0
    4.6573    9.4150    3.7466 C   0  0  0  0  0  0  0  0  0  0  0  0
    3.3754    9.5740    4.5346 C   0  0  0  0  0  0  0  0  0  0  0  0
    3.7710    9.8026    5.9900 C   0  0  1  0  0  0  0  0  0  0  0  0
    3.7812   11.3200    6.2001 C   0  0  0  0  0  0  0  0  0  0  0  0
    2.8464   11.9994    5.2182 C   0  0  0  0  0  3  0  0  0  0  0  0
    3.6583   12.9065    4.2939 C   0  0  0  0  0  3  0  0  0  0  0  0
    5.0224   13.1844    4.9280 C   0  0  0  0  0  3  0  0  0  0  0  0
    5.0364   14.6279    5.3810 C   0  0  0  0  0  0  0  0  0  0  0  0
    4.8946   14.6772    6.8916 C   0  0  0  0  0  0  0  0  0  0  0  0
    6.0208   13.9133    7.5351 C   0  0  0  0  0  0  0  0  0  0  0  0
    5.6816   13.7364    9.0107 C   0  0  1  0  0  0  0  0  0  0  0  0
    5.6328   15.1248    9.6446 C   0  0  0  0  0  0  0  0  0  0  0  0
    4.3152   13.0720    9.0646 C   0  0  2  0  0  0  0  0  0  0  0  0
    3.2671   14.0967    8.6171 C   0  0  0  0  0  0  0  0  0  0  0  0
    4.0314   12.7252   10.4923 C   0  0  2  0  0  0  0  0  0  0  0  0
    4.6267   13.7900   11.3678 C   0  0  0  0  0  0  0  0  0  0  0  0
    5.5395   13.2877   12.4223 C   0  0  0  0  0  0  0  0  0  0  0  0
    6.6237   12.3761   11.9401 C   0  0  0  0  0  0  0  0  0  0  0  0
    6.2413   10.9587   12.3870 C   0  0  0  0  0  3  0  0  0  0  0  0
    4.7255   10.8901   12.2684 C   0  0  2  0  0  0  0  0  0  0  0  0
    4.3162    9.4417   12.4578 C   0  0  0  0  0  0  0  0  0  0  0  0
  1  2  2  3
  2  3  1  0
  2  4  1  0
  4  5  1  0
  6  5  1  1
  6  7  1  0
  7  8  1  0
  7  9  1  0
  9 10  1  0
 10 11  1  0
 11 12  1  0
 12 13  1  0
 13 14  1  0
 14 15  1  0
 16 15  1  6
 16 17  1  0
 17 18  1  0
 18 19  1  0
 19 20  1  0
 20 21  1  0
 21 22  1  0
 22 23  1  0
 23 24  1  0
 24 25  1  1
 24 26  1  0
 26 27  1  1
 26 28  1  0
 28 29  1  1
 29 30  1  0
 30 31  1  0
 31 32  1  0
 32 33  1  0
 33 34  1  6
 28  1  1  0
 33  1  1  0
 16  6  1  0
M  RAD  5   7   2  18   2  19   2  20   2  32   2
M  END
>  <docking_score>  (3) 
-5.7530000000000001

$$$$
