
     RDKit          3D

 15 15  0  0  0  0  0  0  0  0999 V2000
   19.0389   -1.1349   -2.0292 C   0  0  0  0  0  0  0  0  0  0  0  0
   17.7719   -1.9079   -2.3079 C   0  0  0  0  0  3  0  0  0  0  0  0
   17.9064   -2.6205   -3.6450 C   0  0  1  0  0  0  0  0  0  0  0  0
   18.9430   -3.7254   -3.5392 C   0  0  2  0  0  0  0  0  0  0  0  0
   19.0396   -4.3728   -4.7500 O   0  0  0  0  0  0  0  0  0  0  0  0
   18.6459   -4.6819   -2.4122 C   0  0  0  0  0  0  0  0  0  0  0  0
   17.8730   -5.7478   -2.7770 O   0  0  0  0  0  0  0  0  0  0  0  0
   16.6824   -5.4582   -3.1919 O   0  0  0  0  0  0  0  0  0  0  0  0
   16.2126   -4.2089   -2.8083 C   0  0  1  0  0  0  0  0  0  0  0  0
   16.6548   -3.8064   -1.5734 O   0  0  0  0  0  0  0  0  0  0  0  0
   16.5525   -3.2449   -3.9139 C   0  0  1  0  0  0  0  0  0  0  0  0
   15.5438   -2.2379   -3.9600 N   0  0  0  0  0  0  0  0  0  0  0  0
   14.7524   -2.3126   -5.1483 C   0  0  0  0  0  3  0  0  0  0  0  0
   15.5060   -1.6245   -6.2349 C   0  0  0  0  0  0  0  0  0  0  0  0
   15.3941   -2.0932   -7.4855 C   0  0  0  0  0  3  0  0  0  0  0  0
  1  2  1  0
  3  2  1  1
  3  4  1  0
  4  5  1  6
  4  6  1  0
  6  7  1  0
  7  8  1  0
  8  9  1  0
  9 10  1  1
  9 11  1  0
 11 12  1  1
 12 13  1  0
 13 14  1  0
 14 15  2  0
 11  3  1  0
M  RAD  3   2   2  13   2  15   2
M  END
>  <docking_score>  (1) 
-4.2750000000000004

$$$$

     RDKit          3D

 15 15  0  0  0  0  0  0  0  0999 V2000
   16.1272   -5.8876   -6.2674 C   0  0  0  0  0  0  0  0  0  0  0  0
   15.5148   -4.5926   -5.7893 C   0  0  0  0  0  3  0  0  0  0  0  0
   16.6184   -3.5673   -5.5780 C   0  0  1  0  0  0  0  0  0  0  0  0
   16.6020   -2.5513   -6.7068 C   0  0  2  0  0  0  0  0  0  0  0  0
   17.5926   -1.6201   -6.4920 O   0  0  0  0  0  0  0  0  0  0  0  0
   15.2500   -1.9054   -6.8750 C   0  0  0  0  0  0  0  0  0  0  0  0
   15.0849   -0.7632   -6.1438 O   0  0  0  0  0  0  0  0  0  0  0  0
   15.1447   -0.9086   -4.8598 O   0  0  0  0  0  0  0  0  0  0  0  0
   14.9307   -2.2025   -4.4029 C   0  0  1  0  0  0  0  0  0  0  0  0
   14.0365   -2.9162   -5.1602 O   0  0  0  0  0  0  0  0  0  0  0  0
   16.2788   -2.8620   -4.2810 C   0  0  1  0  0  0  0  0  0  0  0  0
   16.2268   -3.7992   -3.2074 N   0  0  0  0  0  0  0  0  0  0  0  0
   17.5118   -4.0355   -2.6269 C   0  0  0  0  0  3  0  0  0  0  0  0
   17.7378   -5.5089   -2.6188 C   0  0  0  0  0  0  0  0  0  0  0  0
   18.6561   -6.0188   -3.4512 C   0  0  0  0  0  3  0  0  0  0  0  0
  1  2  1  0
  3  2  1  6
  3  4  1  0
  4  5  1  1
  4  6  1  0
  6  7  1  0
  7  8  1  0
  8  9  1  0
  9 10  1  6
  9 11  1  0
 11 12  1  1
 12 13  1  0
 13 14  1  0
 14 15  2  0
 11  3  1  0
M  RAD  3   2   2  13   2  15   2
M  END
>  <docking_score>  (2) 
-4.1100000000000003

$$$$

     RDKit          3D

 15 15  0  0  0  0  0  0  0  0999 V2000
   16.0440   -2.2299   -7.8358 C   0  0  0  0  0  0  0  0  0  0  0  0
   16.3175   -3.0771   -6.6160 C   0  0  0  0  0  3  0  0  0  0  0  0
   15.0053   -3.3585   -5.8999 C   0  0  1  0  0  0  0  0  0  0  0  0
   14.3866   -4.6364   -6.4394 C   0  0  2  0  0  0  0  0  0  0  0  0
   13.2109   -4.8879   -5.7693 O   0  0  0  0  0  0  0  0  0  0  0  0
   15.3359   -5.8055   -6.3678 C   0  0  0  0  0  0  0  0  0  0  0  0
   15.2516   -6.5196   -5.2061 O   0  0  0  0  0  0  0  0  0  0  0  0
   15.5569   -5.8715   -4.1289 O   0  0  0  0  0  0  0  0  0  0  0  0
   16.3221   -4.7293   -4.3256 C   0  0  1  0  0  0  0  0  0  0  0  0
   17.2032   -4.8268   -5.3728 O   0  0  0  0  0  0  0  0  0  0  0  0
   15.3701   -3.5688   -4.4447 C   0  0  1  0  0  0  0  0  0  0  0  0
   16.0091   -2.4061   -3.9220 N   0  0  0  0  0  0  0  0  0  0  0  0
   16.4085   -2.5692   -2.5590 C   0  0  0  0  0  3  0  0  0  0  0  0
   17.7638   -1.9663   -2.4119 C   0  0  0  0  0  0  0  0  0  0  0  0
   18.4331   -1.6214   -3.5205 C   0  0  0  0  0  3  0  0  0  0  0  0
  1  2  1  0
  3  2  1  6
  3  4  1  0
  4  5  1  1
  4  6  1  0
  6  7  1  0
  7  8  1  0
  8  9  1  0
  9 10  1  6
  9 11  1  0
 11 12  1  6
 12 13  1  0
 13 14  1  0
 14 15  2  0
 11  3  1  0
M  RAD  3   2   2  13   2  15   2
M  END
>  <docking_score>  (3) 
-4.0780000000000003

$$$$
