
     RDKit          3D

 24 26  0  0  0  0  0  0  0  0999 V2000
    5.2454    9.3505    2.4630 C   0  0  0  0  0  0  0  0  0  0  0  0
    4.2822   10.1415    3.2983 C   0  0  1  0  0  0  0  0  0  0  0  0
    2.9434    9.4793    3.2654 C   0  0  0  0  0  0  0  0  0  0  0  0
    2.6938    8.6007    4.4721 C   0  0  2  0  0  0  0  0  0  0  0  0
    2.2673    9.3614    5.5644 O   0  0  0  0  0  0  0  0  0  0  0  0
    4.0127    7.9242    4.8092 C   0  0  2  0  0  0  0  0  0  0  0  0
    3.8590    6.9009    5.7241 O   0  0  0  0  0  0  0  0  0  0  0  0
    4.9037    8.9783    5.4324 C   0  0  1  0  0  0  0  0  0  0  0  0
    6.2233    8.5579    5.2954 O   0  0  0  0  0  0  0  0  0  0  0  0
    4.7518   10.3095    4.7267 C   0  0  1  0  0  0  0  0  0  0  0  0
    6.0379   10.9722    4.7788 N   0  0  0  0  0  0  0  0  0  0  0  0
    5.9067   12.4040    4.9591 C   0  0  0  0  0  3  0  0  0  0  0  0
    6.2681   13.0567    3.6374 C   0  0  1  0  0  0  0  0  0  0  0  0
    6.0922   14.5688    3.8210 C   0  0  1  0  0  0  0  0  0  0  0  0
    5.0416   14.7292    4.7512 O   0  0  0  0  0  0  0  0  0  0  0  0
    7.4015   14.9312    4.4766 C   0  0  2  0  0  0  0  0  0  0  0  0
    8.0433   15.9950    3.8908 O   0  0  0  0  0  0  0  0  0  0  0  0
    8.4578   15.7910    2.6873 O   0  0  0  0  0  0  0  0  0  0  0  0
    9.2027   14.6571    2.4955 C   0  0  1  0  0  0  0  0  0  0  0  0
   10.0176   14.3244    3.5738 O   0  0  0  0  0  0  0  0  0  0  0  0
    8.2753   13.4992    2.2062 C   0  0  2  0  0  0  0  0  0  0  0  0
    7.2731   13.8962    1.3551 O   0  0  0  0  0  0  0  0  0  0  0  0
    7.7857   12.9684    3.5275 C   0  0  1  0  0  0  0  0  0  0  0  0
    8.1639   13.7980    4.5857 O   0  0  0  0  0  0  0  0  0  0  0  0
  2  1  1  6
  2  3  1  0
  3  4  1  0
  4  5  1  1
  4  6  1  0
  6  7  1  1
  6  8  1  0
  8  9  1  6
  8 10  1  0
 10 11  1  6
 11 12  1  0
 13 12  1  1
 13 14  1  0
 14 15  1  1
 14 16  1  0
 16 17  1  6
 17 18  1  0
 18 19  1  0
 19 20  1  1
 19 21  1  0
 21 22  1  6
 21 23  1  0
 23 24  1  1
 10  2  1  0
 23 13  1  0
 24 16  1  0
M  RAD  1  12   2
M  END
>  <docking_score>  (1) 
-4.6079999999999997

$$$$

     RDKit          3D

 24 26  0  0  0  0  0  0  0  0999 V2000
    6.6910   12.5774    1.1749 C   0  0  0  0  0  0  0  0  0  0  0  0
    6.7826   11.8167    2.4649 C   0  0  1  0  0  0  0  0  0  0  0  0
    7.8698   12.4027    3.3056 C   0  0  0  0  0  0  0  0  0  0  0  0
    7.3497   13.3734    4.3437 C   0  0  2  0  0  0  0  0  0  0  0  0
    6.8745   12.6942    5.4691 O   0  0  0  0  0  0  0  0  0  0  0  0
    6.2102   14.1453    3.6985 C   0  0  2  0  0  0  0  0  0  0  0  0
    5.8249   15.2383    4.4499 O   0  0  0  0  0  0  0  0  0  0  0  0
    5.0304   13.2001    3.6095 C   0  0  1  0  0  0  0  0  0  0  0  0
    4.1768   13.6742    2.6179 O   0  0  0  0  0  0  0  0  0  0  0  0
    5.4759   11.8040    3.2274 C   0  0  1  0  0  0  0  0  0  0  0  0
    4.4154   11.2165    2.4362 N   0  0  0  0  0  0  0  0  0  0  0  0
    4.4996    9.7704    2.3994 C   0  0  0  0  0  3  0  0  0  0  0  0
    3.7212    9.2461    3.5922 C   0  0  1  0  0  0  0  0  0  0  0  0
    2.6160    8.3367    3.0420 C   0  0  1  0  0  0  0  0  0  0  0  0
    2.2609    8.8718    1.7841 O   0  0  0  0  0  0  0  0  0  0  0  0
    3.3778    7.0502    2.8423 C   0  0  2  0  0  0  0  0  0  0  0  0
    2.7612    5.9472    3.3808 O   0  0  0  0  0  0  0  0  0  0  0  0
    2.6700    5.9425    4.6667 O   0  0  0  0  0  0  0  0  0  0  0  0
    3.8330    6.1841    5.3496 C   0  0  1  0  0  0  0  0  0  0  0  0
    4.9700    5.6676    4.7346 O   0  0  0  0  0  0  0  0  0  0  0  0
    4.0041    7.6758    5.5228 C   0  0  2  0  0  0  0  0  0  0  0  0
    2.8028    8.2555    5.8503 O   0  0  0  0  0  0  0  0  0  0  0  0
    4.6211    8.2120    4.2583 C   0  0  1  0  0  0  0  0  0  0  0  0
    4.6697    7.2383    3.2581 O   0  0  0  0  0  0  0  0  0  0  0  0
  2  1  1  6
  2  3  1  0
  3  4  1  0
  4  5  1  1
  4  6  1  0
  6  7  1  1
  6  8  1  0
  8  9  1  6
  8 10  1  0
 10 11  1  6
 11 12  1  0
 13 12  1  6
 13 14  1  0
 14 15  1  6
 14 16  1  0
 16 17  1  1
 17 18  1  0
 18 19  1  0
 19 20  1  6
 19 21  1  0
 21 22  1  6
 21 23  1  0
 23 24  1  6
 10  2  1  0
 23 13  1  0
 24 16  1  0
M  RAD  1  12   2
M  END
>  <docking_score>  (2) 
-4.5590000000000002

$$$$

     RDKit          3D

 24 26  0  0  0  0  0  0  0  0999 V2000
   19.6854   -0.5440   -4.5052 C   0  0  0  0  0  0  0  0  0  0  0  0
   19.4985   -2.0324   -4.5334 C   0  0  1  0  0  0  0  0  0  0  0  0
   20.8367   -2.6967   -4.5236 C   0  0  0  0  0  0  0  0  0  0  0  0
   21.2574   -3.1475   -3.1415 C   0  0  2  0  0  0  0  0  0  0  0  0
   20.6701   -4.3731   -2.8153 O   0  0  0  0  0  0  0  0  0  0  0  0
   20.7855   -2.0829   -2.1643 C   0  0  2  0  0  0  0  0  0  0  0  0
   21.3336   -2.2447   -0.9068 O   0  0  0  0  0  0  0  0  0  0  0  0
   19.2833   -2.2300   -2.0418 C   0  0  1  0  0  0  0  0  0  0  0  0
   18.7716   -1.0202   -1.5820 O   0  0  0  0  0  0  0  0  0  0  0  0
   18.6524   -2.5350   -3.3843 C   0  0  1  0  0  0  0  0  0  0  0  0
   17.3421   -1.9195   -3.3925 N   0  0  0  0  0  0  0  0  0  0  0  0
   16.6498   -2.1275   -4.6484 C   0  0  0  0  0  3  0  0  0  0  0  0
   16.0108   -3.5027   -4.5850 C   0  0  1  0  0  0  0  0  0  0  0  0
   14.6310   -3.3869   -5.2438 C   0  0  1  0  0  0  0  0  0  0  0  0
   14.1835   -2.0728   -4.9833 O   0  0  0  0  0  0  0  0  0  0  0  0
   14.9991   -3.5112   -6.7013 C   0  0  2  0  0  0  0  0  0  0  0  0
   14.2452   -4.4293   -7.3910 O   0  0  0  0  0  0  0  0  0  0  0  0
   14.4048   -5.6555   -7.0263 O   0  0  0  0  0  0  0  0  0  0  0  0
   15.7004   -6.0966   -6.9625 C   0  0  1  0  0  0  0  0  0  0  0  0
   16.5348   -5.5490   -7.9328 O   0  0  0  0  0  0  0  0  0  0  0  0
   16.2639   -5.7801   -5.5961 C   0  0  2  0  0  0  0  0  0  0  0  0
   15.3286   -6.0437   -4.6255 O   0  0  0  0  0  0  0  0  0  0  0  0
   16.7388   -4.3515   -5.6205 C   0  0  1  0  0  0  0  0  0  0  0  0
   16.3526   -3.7023   -6.7954 O   0  0  0  0  0  0  0  0  0  0  0  0
  2  1  1  1
  2  3  1  0
  3  4  1  0
  4  5  1  1
  4  6  1  0
  6  7  1  1
  6  8  1  0
  8  9  1  6
  8 10  1  0
 10 11  1  1
 11 12  1  0
 13 12  1  6
 13 14  1  0
 14 15  1  6
 14 16  1  0
 16 17  1  1
 17 18  1  0
 18 19  1  0
 19 20  1  6
 19 21  1  0
 21 22  1  1
 21 23  1  0
 23 24  1  6
 10  2  1  0
 23 13  1  0
 24 16  1  0
M  RAD  1  12   2
M  END
>  <docking_score>  (3) 
-4.5499999999999998

$$$$
