
     RDKit          3D

 26 26  0  0  0  0  0  0  0  0999 V2000
   10.4467   15.5555    6.5640 C   0  0  0  0  0  0  0  0  0  0  0  0
   10.6137   14.7557    5.2869 C   0  0  0  0  0  3  0  0  0  0  0  0
    9.4089   15.0351    4.4184 C   0  0  0  0  0  0  0  0  0  0  0  0
    9.4113   14.1582    3.1796 C   0  0  2  0  0  0  0  0  0  0  0  0
    9.4991   14.9308    2.0187 O   0  0  0  0  0  0  0  0  0  0  0  0
    8.0752   13.4436    3.1500 C   0  0  2  0  0  0  0  0  0  0  0  0
    7.6214   13.2591    1.8474 O   0  0  0  0  0  0  0  0  0  0  0  0
    7.1085   14.2846    3.9623 C   0  0  1  0  0  0  0  0  0  0  0  0
    6.5445   15.2048    3.0493 O   0  0  0  0  0  0  0  0  0  0  0  0
    6.0280   13.3535    4.4920 C   0  0  0  0  0  3  0  0  0  0  0  0
    5.1113   14.1958    5.3522 C   0  0  0  0  0  3  0  0  0  0  0  0
    4.0761   13.3352    5.9973 C   0  0  0  0  0  3  0  0  0  0  0  0
    4.7908   11.8332    6.7238 S   0  0  0  0  0  0  0  0  0  0  0  0
    4.2020   10.4241    5.7739 C   0  0  0  0  0  3  0  0  0  0  0  0
    4.9813    9.1602    6.0692 C   0  0  1  0  0  0  0  0  0  0  0  0
    3.9476    8.0647    6.3129 C   0  0  1  0  0  0  0  0  0  0  0  0
    3.5168    8.0228    7.6159 O   0  0  0  0  0  0  0  0  0  0  0  0
    2.8098    8.2325    5.3179 C   0  0  0  0  0  0  0  0  0  0  0  0
    2.4727    7.0180    4.7454 O   0  0  0  0  0  0  0  0  0  0  0  0
    3.0092    6.8397    3.5584 O   0  0  0  0  0  0  0  0  0  0  0  0
    4.3868    7.0283    3.5798 C   0  0  2  0  0  0  0  0  0  0  0  0
    5.0290    6.2514    4.5284 O   0  0  0  0  0  0  0  0  0  0  0  0
    4.6536    8.4994    3.7505 C   0  0  2  0  0  0  0  0  0  0  0  0
    4.8970    9.1525    2.5487 O   0  0  0  0  0  0  0  0  0  0  0  0
    5.7065    8.7824    4.7903 C   0  0  1  0  0  0  0  0  0  0  0  0
    6.4847    9.8424    4.3369 O   0  0  0  0  0  0  0  0  0  0  0  0
  1  2  1  0
  2  3  1  0
  3  4  1  0
  4  5  1  6
  4  6  1  0
  6  7  1  6
  6  8  1  0
  8  9  1  6
  8 10  1  0
 10 11  1  0
 11 12  1  0
 12 13  1  0
 13 14  1  0
 15 14  1  6
 15 16  1  0
 16 17  1  1
 16 18  1  0
 18 19  1  0
 19 20  1  0
 20 21  1  0
 21 22  1  1
 21 23  1  0
 23 24  1  6
 23 25  1  0
 25 26  1  6
 25 15  1  0
M  RAD  5   2   2  10   2  11   2  12   2  14   2
M  END
>  <docking_score>  (1) 
-4.2110000000000003

$$$$

     RDKit          3D

 26 26  0  0  0  0  0  0  0  0999 V2000
   20.5330    1.2287   -4.6098 C   0  0  0  0  0  0  0  0  0  0  0  0
   20.5478    0.4038   -3.3378 C   0  0  0  0  0  3  0  0  0  0  0  0
   19.8559   -0.9052   -3.6406 C   0  0  0  0  0  0  0  0  0  0  0  0
   18.9089   -1.2963   -2.5208 C   0  0  2  0  0  0  0  0  0  0  0  0
   19.4560   -0.9907   -1.2719 O   0  0  0  0  0  0  0  0  0  0  0  0
   18.7500   -2.8017   -2.5913 C   0  0  2  0  0  0  0  0  0  0  0  0
   19.3732   -3.3306   -3.7177 O   0  0  0  0  0  0  0  0  0  0  0  0
   17.2600   -3.0870   -2.5940 C   0  0  1  0  0  0  0  0  0  0  0  0
   16.9680   -3.5985   -1.3089 O   0  0  0  0  0  0  0  0  0  0  0  0
   16.5421   -1.7611   -2.7983 C   0  0  0  0  0  3  0  0  0  0  0  0
   15.3826   -2.0334   -3.7315 C   0  0  0  0  0  3  0  0  0  0  0  0
   15.4971   -1.1867   -4.9556 C   0  0  0  0  0  3  0  0  0  0  0  0
   15.9851   -2.1529   -6.4127 S   0  0  0  0  0  0  0  0  0  0  0  0
   16.0315   -3.8868   -5.9375 C   0  0  0  0  0  3  0  0  0  0  0  0
   16.1895   -4.8093   -7.1275 C   0  0  1  0  0  0  0  0  0  0  0  0
   17.6670   -5.1856   -7.1866 C   0  0  1  0  0  0  0  0  0  0  0  0
   18.4194   -4.2711   -7.8814 O   0  0  0  0  0  0  0  0  0  0  0  0
   18.1727   -5.4156   -5.7709 C   0  0  0  0  0  0  0  0  0  0  0  0
   18.9216   -6.5776   -5.6978 O   0  0  0  0  0  0  0  0  0  0  0  0
   18.2396   -7.6037   -5.2389 O   0  0  0  0  0  0  0  0  0  0  0  0
   17.0608   -7.8009   -5.9498 C   0  0  2  0  0  0  0  0  0  0  0  0
   17.2598   -7.9169   -7.3146 O   0  0  0  0  0  0  0  0  0  0  0  0
   16.1081   -6.6932   -5.5896 C   0  0  2  0  0  0  0  0  0  0  0  0
   15.2034   -7.0528   -4.5985 O   0  0  0  0  0  0  0  0  0  0  0  0
   15.4393   -6.0866   -6.7957 C   0  0  1  0  0  0  0  0  0  0  0  0
   14.1190   -5.8062   -6.4597 O   0  0  0  0  0  0  0  0  0  0  0  0
  1  2  1  0
  2  3  1  0
  3  4  1  0
  4  5  1  1
  4  6  1  0
  6  7  1  6
  6  8  1  0
  8  9  1  1
  8 10  1  0
 10 11  1  0
 11 12  1  0
 12 13  1  0
 13 14  1  0
 15 14  1  1
 15 16  1  0
 16 17  1  1
 16 18  1  0
 18 19  1  0
 19 20  1  0
 20 21  1  0
 21 22  1  6
 21 23  1  0
 23 24  1  1
 23 25  1  0
 25 26  1  1
 25 15  1  0
M  RAD  5   2   2  10   2  11   2  12   2  14   2
M  END
>  <docking_score>  (2) 
-4.1609999999999996

$$$$

     RDKit          3D

 26 26  0  0  0  0  0  0  0  0999 V2000
   19.8088   -2.0857   -1.3695 C   0  0  0  0  0  0  0  0  0  0  0  0
   18.6994   -3.0833   -1.6394 C   0  0  0  0  0  3  0  0  0  0  0  0
   18.3229   -2.9561   -3.0975 C   0  0  0  0  0  0  0  0  0  0  0  0
   17.3185   -1.8380   -3.3085 C   0  0  2  0  0  0  0  0  0  0  0  0
   16.0727   -2.1757   -2.7736 O   0  0  0  0  0  0  0  0  0  0  0  0
   17.1442   -1.6868   -4.8062 C   0  0  2  0  0  0  0  0  0  0  0  0
   17.8276   -0.5761   -5.2923 O   0  0  0  0  0  0  0  0  0  0  0  0
   15.6534   -1.5811   -5.0671 C   0  0  1  0  0  0  0  0  0  0  0  0
   15.4662   -0.3343   -5.7063 O   0  0  0  0  0  0  0  0  0  0  0  0
   15.2751   -2.7100   -6.0145 C   0  0  0  0  0  3  0  0  0  0  0  0
   15.4009   -2.1602   -7.4186 C   0  0  0  0  0  3  0  0  0  0  0  0
   16.7332   -2.5129   -7.9921 C   0  0  0  0  0  3  0  0  0  0  0  0
   16.8650   -4.2814   -8.3793 S   0  0  0  0  0  0  0  0  0  0  0  0
   17.3501   -5.1428   -6.8770 C   0  0  0  0  0  3  0  0  0  0  0  0
   16.7346   -6.5223   -6.7760 C   0  0  1  0  0  0  0  0  0  0  0  0
   17.7523   -7.4917   -7.3700 C   0  0  1  0  0  0  0  0  0  0  0  0
   17.6357   -7.6133   -8.7327 O   0  0  0  0  0  0  0  0  0  0  0  0
   19.1461   -7.0718   -6.9298 C   0  0  0  0  0  0  0  0  0  0  0  0
   19.8743   -8.1643   -6.4909 O   0  0  0  0  0  0  0  0  0  0  0  0
   19.8854   -8.2857   -5.1819 O   0  0  0  0  0  0  0  0  0  0  0  0
   18.5999   -8.2835   -4.6513 C   0  0  2  0  0  0  0  0  0  0  0  0
   17.7720   -9.2337   -5.2236 O   0  0  0  0  0  0  0  0  0  0  0  0
   18.0517   -6.8866   -4.7628 C   0  0  2  0  0  0  0  0  0  0  0  0
   18.1983   -6.1484   -3.5950 O   0  0  0  0  0  0  0  0  0  0  0  0
   16.6437   -6.8556   -5.2979 C   0  0  1  0  0  0  0  0  0  0  0  0
   15.9456   -5.8656   -4.6144 O   0  0  0  0  0  0  0  0  0  0  0  0
  1  2  1  0
  2  3  1  0
  3  4  1  0
  4  5  1  1
  4  6  1  0
  6  7  1  1
  6  8  1  0
  8  9  1  6
  8 10  1  0
 10 11  1  0
 11 12  1  0
 12 13  1  0
 13 14  1  0
 15 14  1  1
 15 16  1  0
 16 17  1  6
 16 18  1  0
 18 19  1  0
 19 20  1  0
 20 21  1  0
 21 22  1  6
 21 23  1  0
 23 24  1  1
 23 25  1  0
 25 26  1  1
 25 15  1  0
M  RAD  5   2   2  10   2  11   2  12   2  14   2
M  END
>  <docking_score>  (3) 
-3.9220000000000002

$$$$
