
     RDKit          3D

 12 12  0  0  0  0  0  0  0  0999 V2000
    7.7493   -0.2308   20.4725 C   0  0  0  0  0  0  0  0  0  0  0  0
    8.1389   -1.4930   20.8984 O   0  0  0  0  0  0  0  0  0  0  0  0
    9.0164   -2.1174   20.0305 C   0  0  2  0  0  0  0  0  0  0  0  0
   10.3936   -2.1311   20.6665 C   0  0  0  0  0  0  0  0  0  0  0  0
    9.0726   -1.4282   18.6967 C   0  0  0  0  0  0  0  0  0  0  0  0
    9.5881   -2.4650   17.6898 C   0  0  0  0  0  0  0  0  0  0  0  0
    7.7191   -0.9960   18.2182 C   0  0  0  0  0  0  0  0  0  0  0  0
   10.0022   -0.4211   18.7541 O   0  0  0  0  0  0  0  0  0  0  0  0
    9.5226    0.7974   19.1578 C   0  0  2  0  0  0  0  0  0  0  0  0
    8.8769    0.7637   20.5138 C   0  0  2  0  0  0  0  0  0  0  0  0
    9.7937    0.4405   21.4970 O   0  0  0  0  0  1  0  0  0  0  0  0
    8.6481    1.3669   18.2247 O   0  0  0  0  0  0  0  0  0  0  0  0
  1  2  1  0
  2  3  1  0
  3  4  1  1
  3  5  1  0
  5  6  1  0
  5  7  1  0
  5  8  1  0
  8  9  1  0
  9 10  1  0
 10 11  1  1
  9 12  1  6
 10  1  1  0
M  CHG  1  11  -1
M  END
>  <docking_score>  (1) 
-4.343

$$$$

     RDKit          3D

 12 12  0  0  0  0  0  0  0  0999 V2000
   10.3883   -0.7382   18.7945 C   0  0  0  0  0  0  0  0  0  0  0  0
   10.6969   -1.4291   19.9580 O   0  0  0  0  0  0  0  0  0  0  0  0
    9.6581   -1.4563   20.8708 C   0  0  2  0  0  0  0  0  0  0  0  0
    9.0801   -2.8586   20.9001 C   0  0  0  0  0  0  0  0  0  0  0  0
    8.5833   -0.4640   20.5281 C   0  0  0  0  0  0  0  0  0  0  0  0
    7.8182   -0.1812   21.8277 C   0  0  0  0  0  0  0  0  0  0  0  0
    9.1421    0.8465   20.0610 C   0  0  0  0  0  0  0  0  0  0  0  0
    7.7000   -1.0472   19.6557 O   0  0  0  0  0  0  0  0  0  0  0  0
    8.0039   -0.9003   18.3275 C   0  0  2  0  0  0  0  0  0  0  0  0
    9.3550   -1.4459   17.9619 C   0  0  2  0  0  0  0  0  0  0  0  0
    9.4104   -2.8144   18.1520 O   0  0  0  0  0  1  0  0  0  0  0  0
    7.8891    0.4256   17.8933 O   0  0  0  0  0  0  0  0  0  0  0  0
  1  2  1  0
  2  3  1  0
  3  4  1  6
  3  5  1  0
  5  6  1  0
  5  7  1  0
  5  8  1  0
  8  9  1  0
  9 10  1  0
 10 11  1  1
  9 12  1  1
 10  1  1  0
M  CHG  1  11  -1
M  END
>  <docking_score>  (2) 
-4.327

$$$$

     RDKit          3D

 12 12  0  0  0  0  0  0  0  0999 V2000
    9.9518    0.2657   20.5118 C   0  0  0  0  0  0  0  0  0  0  0  0
    9.3762    0.8830   19.4100 O   0  0  0  0  0  0  0  0  0  0  0  0
    8.9588   -0.0087   18.4385 C   0  0  2  0  0  0  0  0  0  0  0  0
    7.4427   -0.0607   18.4529 C   0  0  0  0  0  0  0  0  0  0  0  0
    9.5227   -1.3837   18.6587 C   0  0  0  0  0  0  0  0  0  0  0  0
    9.4790   -2.0973   17.3011 C   0  0  0  0  0  0  0  0  0  0  0  0
   10.9598   -1.3515   19.0847 C   0  0  0  0  0  0  0  0  0  0  0  0
    8.6951   -2.0743   19.5070 O   0  0  0  0  0  0  0  0  0  0  0  0
    8.9806   -1.9431   20.8409 C   0  0  2  0  0  0  0  0  0  0  0  0
    8.9538   -0.5190   21.3183 C   0  0  2  0  0  0  0  0  0  0  0  0
    7.6859    0.0218   21.2091 O   0  0  0  0  0  1  0  0  0  0  0  0
   10.1955   -2.5434   21.1921 O   0  0  0  0  0  0  0  0  0  0  0  0
  1  2  1  0
  2  3  1  0
  3  4  1  1
  3  5  1  0
  5  6  1  0
  5  7  1  0
  5  8  1  0
  8  9  1  0
  9 10  1  0
 10 11  1  6
  9 12  1  6
 10  1  1  0
M  CHG  1  11  -1
M  END
>  <docking_score>  (3) 
-4.2590000000000003

$$$$
