
     RDKit          3D

 32 34  0  0  0  0  0  0  0  0999 V2000
   15.6140   -2.7420   -3.4282 C   0  0  0  0  0  0  0  0  0  0  0  0
   16.7720   -3.4614   -3.7554 C   0  0  0  0  0  0  0  0  0  0  0  0
   18.0129   -3.5303   -3.6364 C   0  0  0  0  0  0  0  0  0  0  0  0
   18.2706   -4.8305   -4.4739 C   0  0  0  0  0  0  0  0  0  0  0  0
   19.4440   -5.4117   -4.8197 C   0  0  0  0  0  0  0  0  0  0  0  0
   19.2784   -6.3595   -5.8831 C   0  0  0  0  0  0  0  0  0  0  0  0
   18.1263   -6.6248   -6.4731 C   0  0  0  0  0  0  0  0  0  0  0  0
   18.0112   -7.6168   -7.5708 C   0  0  0  0  0  0  0  0  0  0  0  0
   20.8390   -5.2945   -4.3490 C   0  0  2  0  0  0  0  0  0  0  0  0
   21.2044   -6.4012   -3.5922 F   0  0  0  0  0  0  0  0  0  0  0  0
   21.2220   -4.0957   -3.6376 C   0  0  0  0  0  0  0  0  0  0  0  0
   21.3741   -2.6350   -4.0701 C   0  0  0  0  0  0  0  0  0  0  0  0
   21.3823   -4.6765   -2.4319 C   0  0  0  0  0  0  0  0  0  0  0  0
   21.1143   -4.0215   -1.0908 C   0  0  0  0  0  0  0  0  0  0  0  0
   20.0153   -3.3043   -0.6814 C   0  0  0  0  0  0  0  0  0  0  0  0
   18.9310   -2.9001   -1.7385 C   0  0  0  0  0  0  0  0  0  0  0  0
   19.0245   -2.7308   -3.0423 C   0  0  0  0  0  0  0  0  0  0  0  0
   20.0556   -1.9775   -3.7712 N   0  0  0  0  0  0  0  0  0  0  0  0
   20.0634   -0.7276   -4.3004 C   0  0  0  0  0  0  0  0  0  0  0  0
   19.3189   -0.0819   -5.1482 C   0  0  0  0  0  0  0  0  0  0  0  0
   19.6174    1.3618   -5.5358 C   0  0  0  0  0  0  0  0  0  0  0  0
   21.0895    1.6215   -5.4781 C   0  0  0  0  0  0  0  0  0  0  0  0
   21.2917    3.0446   -5.0288 C   0  0  0  0  0  0  0  0  0  0  0  0
   18.1745   -0.7581   -5.7379 C   0  0  0  0  0  0  0  0  0  0  0  0
   18.2722   -1.8363   -6.5398 C   0  0  0  0  0  0  0  0  0  0  0  0
   17.0813   -2.4615   -7.0946 C   0  0  0  0  0  0  0  0  0  0  0  0
   17.1368   -3.5698   -8.0817 C   0  0  0  0  0  0  0  0  0  0  0  0
   15.9059   -2.0453   -6.7222 C   0  0  0  0  0  0  0  0  0  0  0  0
   15.7457   -0.9969   -5.9589 C   0  0  0  0  0  0  0  0  0  0  0  0
   14.6098   -0.7979   -5.1039 C   0  0  0  0  0  0  0  0  0  0  0  0
   14.6179   -0.8220   -3.8182 C   0  0  0  0  0  0  0  0  0  0  0  0
   15.4915   -1.4860   -3.1440 C   0  0  0  0  0  0  0  0  0  0  0  0
  1  2  1  0
  2  3  2  3
  3  4  1  0
  4  5  2  3
  5  6  1  0
  6  7  2  3
  7  8  1  0
  5  9  1  0
  9 10  1  1
  9 11  1  0
 11 12  1  0
 11 13  2  3
 13 14  1  0
 14 15  2  3
 15 16  1  0
 16 17  2  3
 17 18  1  0
 18 19  1  0
 19 20  2  3
 20 21  1  0
 21 22  1  0
 22 23  1  0
 20 24  1  0
 24 25  2  3
 25 26  1  0
 26 27  1  0
 26 28  2  0
 28 29  2  0
 29 30  1  0
 30 31  2  0
 31 32  2  0
  1 32  2  0
 17  3  1  0
 18 12  1  0
M  END
>  <docking_score>  (1) 
-6.7649999999999997

$$$$

     RDKit          3D

 32 34  0  0  0  0  0  0  0  0999 V2000
   16.5348   -4.8450   -2.8075 C   0  0  0  0  0  0  0  0  0  0  0  0
   16.6656   -5.2011   -4.1572 C   0  0  0  0  0  0  0  0  0  0  0  0
   17.4581   -5.5035   -5.0732 C   0  0  0  0  0  0  0  0  0  0  0  0
   16.4266   -5.7100   -6.2358 C   0  0  0  0  0  0  0  0  0  0  0  0
   16.6491   -5.9674   -7.5467 C   0  0  0  0  0  0  0  0  0  0  0  0
   15.4833   -5.7223   -8.3451 C   0  0  0  0  0  0  0  0  0  0  0  0
   14.3288   -5.2928   -7.8674 C   0  0  0  0  0  0  0  0  0  0  0  0
   13.1522   -5.0553   -8.7400 C   0  0  0  0  0  0  0  0  0  0  0  0
   17.8076   -6.4439   -8.3290 C   0  0  2  0  0  0  0  0  0  0  0  0
   17.6371   -7.7676   -8.7163 F   0  0  0  0  0  0  0  0  0  0  0  0
   19.1271   -6.2909   -7.7588 C   0  0  0  0  0  0  0  0  0  0  0  0
   19.9918   -5.0644   -7.4554 C   0  0  0  0  0  0  0  0  0  0  0  0
   19.3559   -7.6020   -7.5455 C   0  0  0  0  0  0  0  0  0  0  0  0
   20.1725   -8.1849   -6.4084 C   0  0  0  0  0  0  0  0  0  0  0  0
   20.1121   -7.9012   -5.0647 C   0  0  0  0  0  0  0  0  0  0  0  0
   19.2443   -6.6899   -4.5789 C   0  0  0  0  0  0  0  0  0  0  0  0
   18.8682   -5.5956   -5.2101 C   0  0  0  0  0  0  0  0  0  0  0  0
   19.7072   -4.7037   -6.0241 N   0  0  0  0  0  0  0  0  0  0  0  0
   20.3028   -3.5155   -5.7487 C   0  0  0  0  0  0  0  0  0  0  0  0
   19.8951   -2.3595   -5.3158 C   0  0  0  0  0  0  0  0  0  0  0  0
   20.8604   -1.1979   -5.1094 C   0  0  0  0  0  0  0  0  0  0  0  0
   21.0410   -0.4393   -6.3860 C   0  0  0  0  0  0  0  0  0  0  0  0
   20.5397   -1.3032   -7.5131 C   0  0  0  0  0  0  0  0  0  0  0  0
   18.4827   -2.1756   -5.0227 C   0  0  0  0  0  0  0  0  0  0  0  0
   17.5087   -2.2487   -5.9506 C   0  0  0  0  0  0  0  0  0  0  0  0
   16.1145   -2.0533   -5.5831 C   0  0  0  0  0  0  0  0  0  0  0  0
   15.0167   -1.9973   -6.5819 C   0  0  0  0  0  0  0  0  0  0  0  0
   15.7947   -1.9194   -4.3288 C   0  0  0  0  0  0  0  0  0  0  0  0
   16.6935   -1.8269   -3.3849 C   0  0  0  0  0  0  0  0  0  0  0  0
   16.4595   -2.2049   -2.0199 C   0  0  0  0  0  0  0  0  0  0  0  0
   16.9868   -3.2081   -1.4122 C   0  0  0  0  0  0  0  0  0  0  0  0
   17.3920   -4.2597   -2.0355 C   0  0  0  0  0  0  0  0  0  0  0  0
  1  2  1  0
  2  3  2  3
  3  4  1  0
  4  5  2  3
  5  6  1  0
  6  7  2  3
  7  8  1  0
  5  9  1  0
  9 10  1  1
  9 11  1  0
 11 12  1  0
 11 13  2  3
 13 14  1  0
 14 15  2  3
 15 16  1  0
 16 17  2  3
 17 18  1  0
 18 19  1  0
 19 20  2  3
 20 21  1  0
 21 22  1  0
 22 23  1  0
 20 24  1  0
 24 25  2  3
 25 26  1  0
 26 27  1  0
 26 28  2  0
 28 29  2  0
 29 30  1  0
 30 31  2  0
 31 32  2  0
  1 32  2  0
 17  3  1  0
 18 12  1  0
M  END
>  <docking_score>  (2) 
-4.3159999999999998

$$$$

     RDKit          3D

 32 34  0  0  0  0  0  0  0  0999 V2000
   18.5075   -3.2216   -1.7025 C   0  0  0  0  0  0  0  0  0  0  0  0
   17.6220   -3.0935   -2.7818 C   0  0  0  0  0  0  0  0  0  0  0  0
   17.0656   -3.6760   -3.7356 C   0  0  0  0  0  0  0  0  0  0  0  0
   16.2318   -2.4770   -4.3062 C   0  0  0  0  0  0  0  0  0  0  0  0
   15.4638   -2.4172   -5.4202 C   0  0  0  0  0  0  0  0  0  0  0  0
   15.1712   -1.0645   -5.7960 C   0  0  0  0  0  0  0  0  0  0  0  0
   13.9899   -0.4900   -5.6547 C   0  0  0  0  0  0  0  0  0  0  0  0
   13.7416    0.9156   -6.0609 C   0  0  0  0  0  0  0  0  0  0  0  0
   14.8619   -3.4206   -6.3213 C   0  0  2  0  0  0  0  0  0  0  0  0
   13.4922   -3.5225   -6.1099 F   0  0  0  0  0  0  0  0  0  0  0  0
   15.4308   -4.7494   -6.3421 C   0  0  0  0  0  0  0  0  0  0  0  0
   16.7748   -5.2964   -6.8303 C   0  0  0  0  0  0  0  0  0  0  0  0
   14.3895   -5.3722   -5.7552 C   0  0  0  0  0  0  0  0  0  0  0  0
   14.4799   -6.5795   -4.8420 C   0  0  0  0  0  0  0  0  0  0  0  0
   15.3083   -6.7910   -3.7655 C   0  0  0  0  0  0  0  0  0  0  0  0
   16.4755   -5.7817   -3.4911 C   0  0  0  0  0  0  0  0  0  0  0  0
   17.1216   -4.9739   -4.3080 C   0  0  0  0  0  0  0  0  0  0  0  0
   17.6784   -5.3015   -5.6289 N   0  0  0  0  0  0  0  0  0  0  0  0
   18.9386   -5.6020   -6.0341 C   0  0  0  0  0  0  0  0  0  0  0  0
   20.0980   -5.0210   -5.9442 C   0  0  0  0  0  0  0  0  0  0  0  0
   21.3562   -5.6542   -6.5272 C   0  0  0  0  0  0  0  0  0  0  0  0
   21.3825   -7.1212   -6.2357 C   0  0  0  0  0  0  0  0  0  0  0  0
   21.2459   -7.3002   -4.7467 C   0  0  0  0  0  0  0  0  0  0  0  0
   20.1913   -3.7360   -5.2700 C   0  0  0  0  0  0  0  0  0  0  0  0
   19.5862   -2.6144   -5.7069 C   0  0  0  0  0  0  0  0  0  0  0  0
   19.7246   -1.3622   -4.9790 C   0  0  0  0  0  0  0  0  0  0  0  0
   19.1862   -0.0725   -5.4817 C   0  0  0  0  0  0  0  0  0  0  0  0
   20.3444   -1.3508   -3.8348 C   0  0  0  0  0  0  0  0  0  0  0  0
   20.9631   -2.4015   -3.3652 C   0  0  0  0  0  0  0  0  0  0  0  0
   21.1878   -2.6370   -1.9670 C   0  0  0  0  0  0  0  0  0  0  0  0
   20.6337   -3.5543   -1.2562 C   0  0  0  0  0  0  0  0  0  0  0  0
   19.4839   -4.0559   -1.5479 C   0  0  0  0  0  0  0  0  0  0  0  0
  1  2  1  0
  2  3  2  3
  3  4  1  0
  4  5  2  3
  5  6  1  0
  6  7  2  3
  7  8  1  0
  5  9  1  0
  9 10  1  1
  9 11  1  0
 11 12  1  0
 11 13  2  3
 13 14  1  0
 14 15  2  3
 15 16  1  0
 16 17  2  3
 17 18  1  0
 18 19  1  0
 19 20  2  3
 20 21  1  0
 21 22  1  0
 22 23  1  0
 20 24  1  0
 24 25  2  3
 25 26  1  0
 26 27  1  0
 26 28  2  0
 28 29  2  0
 29 30  1  0
 30 31  2  0
 31 32  2  0
  1 32  2  0
 17  3  1  0
 18 12  1  0
M  END
>  <docking_score>  (3) 
-3.8530000000000002

$$$$
