
     RDKit          3D

 24 25  0  0  0  0  0  0  0  0999 V2000
   19.6220   -7.6856   -5.1077 C   0  0  0  0  0  0  0  0  0  0  0  0
   18.8492   -6.7437   -5.9953 C   0  0  1  0  0  0  0  0  0  0  0  0
   18.0895   -7.5864   -6.9918 C   0  0  0  0  0  0  0  0  0  0  0  0
   17.0627   -6.8039   -7.7631 C   0  0  2  0  0  0  0  0  0  0  0  0
   17.7267   -5.8947   -8.5695 O   0  0  0  0  0  0  0  0  0  0  0  0
   16.0690   -6.1129   -6.8376 C   0  0  2  0  0  0  0  0  0  0  0  0
   16.0684   -4.7333   -7.0714 O   0  0  0  0  0  0  0  0  0  0  0  0
   16.4800   -6.3826   -5.4088 C   0  0  1  0  0  0  0  0  0  0  0  0
   16.5050   -7.7615   -5.2050 O   0  0  0  0  0  0  0  0  0  0  0  0
   17.8821   -5.8773   -5.2404 C   0  0  1  0  0  0  0  0  0  0  0  0
   18.2604   -5.6465   -3.8702 N   0  0  0  0  0  0  0  0  0  0  0  0
   18.4599   -4.2387   -3.5641 C   0  0  1  0  0  0  0  0  0  0  0  0
   18.2223   -3.4612   -4.8074 C   0  0  0  0  0  0  0  0  0  0  0  0
   17.8463   -2.0356   -4.6019 C   0  0  2  0  0  0  0  0  0  0  0  0
   17.2565   -1.5811   -5.7916 O   0  0  0  0  0  0  0  0  0  0  0  0
   19.0065   -1.1236   -4.3130 C   0  0  0  0  0  0  0  0  0  0  0  0
   19.0909   -0.2160   -5.3798 O   0  0  0  0  0  0  0  0  0  0  0  0
   16.8336   -1.8488   -3.4686 C   0  0  1  0  0  0  0  0  0  0  0  0
   15.7822   -2.7295   -3.7609 O   0  0  0  0  0  0  0  0  0  0  0  0
   17.5448   -2.3526   -2.2171 C   0  0  2  0  0  0  0  0  0  0  0  0
   18.8804   -1.9175   -2.1908 O   0  0  0  0  0  0  0  0  0  0  0  0
   17.6203   -3.8755   -2.3826 C   0  0  1  0  0  0  0  0  0  0  0  0
   16.3276   -4.3562   -2.4511 O   0  0  0  0  0  0  0  0  0  0  0  0
   15.9327   -4.9364   -1.3461 O   0  0  0  0  0  0  0  0  0  0  0  0
  2  1  1  1
  2  3  1  0
  3  4  1  0
  4  5  1  1
  4  6  1  0
  6  7  1  6
  6  8  1  0
  8  9  1  6
  8 10  1  0
 10 11  1  1
 12 11  1  6
 12 13  1  0
 13 14  1  0
 14 15  1  6
 14 16  1  0
 16 17  1  0
 14 18  1  0
 18 19  1  6
 18 20  1  0
 20 21  1  6
 20 22  1  0
 22 23  1  6
 23 24  1  0
 10  2  1  0
 22 12  1  0
M  END
>  <docking_score>  (1) 
-4.1200000000000001

$$$$

     RDKit          3D

 24 25  0  0  0  0  0  0  0  0999 V2000
   18.0890   -2.3492   -8.3058 C   0  0  0  0  0  0  0  0  0  0  0  0
   17.1103   -3.1912   -7.5277 C   0  0  1  0  0  0  0  0  0  0  0  0
   16.3652   -4.0491   -8.5220 C   0  0  0  0  0  0  0  0  0  0  0  0
   15.5533   -5.1349   -7.8711 C   0  0  2  0  0  0  0  0  0  0  0  0
   14.5320   -4.5390   -7.1501 O   0  0  0  0  0  0  0  0  0  0  0  0
   16.4145   -6.0308   -6.9896 C   0  0  2  0  0  0  0  0  0  0  0  0
   15.9223   -6.0383   -5.6797 O   0  0  0  0  0  0  0  0  0  0  0  0
   17.8261   -5.4915   -6.9953 C   0  0  1  0  0  0  0  0  0  0  0  0
   18.2867   -5.4624   -8.3108 O   0  0  0  0  0  0  0  0  0  0  0  0
   17.7689   -4.0745   -6.5070 C   0  0  1  0  0  0  0  0  0  0  0  0
   19.0304   -3.5680   -6.0317 N   0  0  0  0  0  0  0  0  0  0  0  0
   18.9533   -3.0193   -4.6869 C   0  0  1  0  0  0  0  0  0  0  0  0
   17.5506   -3.1540   -4.2168 C   0  0  0  0  0  0  0  0  0  0  0  0
   17.3754   -3.1659   -2.7385 C   0  0  2  0  0  0  0  0  0  0  0  0
   16.1119   -3.7145   -2.4697 O   0  0  0  0  0  0  0  0  0  0  0  0
   17.4061   -1.8050   -2.0994 C   0  0  0  0  0  0  0  0  0  0  0  0
   16.0732   -1.4010   -1.9297 O   0  0  0  0  0  0  0  0  0  0  0  0
   18.4259   -4.0221   -2.0257 C   0  0  1  0  0  0  0  0  0  0  0  0
   18.3830   -5.2702   -2.6633 O   0  0  0  0  0  0  0  0  0  0  0  0
   19.7614   -3.3631   -2.3549 C   0  0  2  0  0  0  0  0  0  0  0  0
   19.6633   -1.9640   -2.2718 O   0  0  0  0  0  0  0  0  0  0  0  0
   20.0027   -3.6625   -3.8397 C   0  0  1  0  0  0  0  0  0  0  0  0
   20.0717   -5.0338   -3.9868 O   0  0  0  0  0  0  0  0  0  0  0  0
   21.2840   -5.4679   -4.2227 O   0  0  0  0  0  0  0  0  0  0  0  0
  2  1  1  6
  2  3  1  0
  3  4  1  0
  4  5  1  1
  4  6  1  0
  6  7  1  1
  6  8  1  0
  8  9  1  6
  8 10  1  0
 10 11  1  6
 12 11  1  6
 12 13  1  0
 13 14  1  0
 14 15  1  6
 14 16  1  0
 16 17  1  0
 14 18  1  0
 18 19  1  6
 18 20  1  0
 20 21  1  6
 20 22  1  0
 22 23  1  1
 23 24  1  0
 10  2  1  0
 22 12  1  0
M  END
>  <docking_score>  (2) 
-4.0469999999999997

$$$$

     RDKit          3D

 24 25  0  0  0  0  0  0  0  0999 V2000
   20.1084   -5.7489   -4.3663 C   0  0  0  0  0  0  0  0  0  0  0  0
   19.0565   -4.9079   -3.6892 C   0  0  1  0  0  0  0  0  0  0  0  0
   19.6884   -4.3017   -2.4591 C   0  0  0  0  0  0  0  0  0  0  0  0
   18.8466   -3.2229   -1.8352 C   0  0  2  0  0  0  0  0  0  0  0  0
   17.6947   -3.8071   -1.3353 O   0  0  0  0  0  0  0  0  0  0  0  0
   18.5276   -2.1122   -2.8282 C   0  0  2  0  0  0  0  0  0  0  0  0
   17.1425   -1.9546   -2.9496 O   0  0  0  0  0  0  0  0  0  0  0  0
   19.1123   -2.4886   -4.1697 C   0  0  1  0  0  0  0  0  0  0  0  0
   20.4864   -2.6717   -4.0213 O   0  0  0  0  0  0  0  0  0  0  0  0
   18.5221   -3.8099   -4.5637 C   0  0  1  0  0  0  0  0  0  0  0  0
   18.6147   -4.0956   -5.9721 N   0  0  0  0  0  0  0  0  0  0  0  0
   17.3160   -4.2557   -6.6071 C   0  0  1  0  0  0  0  0  0  0  0  0
   16.2715   -4.0690   -5.5674 C   0  0  0  0  0  0  0  0  0  0  0  0
   14.9344   -3.6593   -6.0779 C   0  0  2  0  0  0  0  0  0  0  0  0
   14.2180   -3.1236   -4.9965 O   0  0  0  0  0  0  0  0  0  0  0  0
   14.1098   -4.7879   -6.6324 C   0  0  0  0  0  0  0  0  0  0  0  0
   14.1266   -5.8163   -5.6780 O   0  0  0  0  0  0  0  0  0  0  0  0
   15.0210   -2.5871   -7.1676 C   0  0  1  0  0  0  0  0  0  0  0  0
   15.8139   -1.5668   -6.6229 O   0  0  0  0  0  0  0  0  0  0  0  0
   15.7992   -3.2417   -8.3042 C   0  0  2  0  0  0  0  0  0  0  0  0
   15.3764   -4.5668   -8.5023 O   0  0  0  0  0  0  0  0  0  0  0  0
   17.2414   -3.3509   -7.7938 C   0  0  1  0  0  0  0  0  0  0  0  0
   17.6985   -2.0716   -7.5464 O   0  0  0  0  0  0  0  0  0  0  0  0
   18.9729   -1.9192   -7.8042 O   0  0  0  0  0  0  0  0  0  0  0  0
  2  1  1  6
  2  3  1  0
  3  4  1  0
  4  5  1  6
  4  6  1  0
  6  7  1  6
  6  8  1  0
  8  9  1  1
  8 10  1  0
 10 11  1  6
 12 11  1  1
 12 13  1  0
 13 14  1  0
 14 15  1  1
 14 16  1  0
 16 17  1  0
 14 18  1  0
 18 19  1  1
 18 20  1  0
 20 21  1  1
 20 22  1  0
 22 23  1  1
 23 24  1  0
 10  2  1  0
 22 12  1  0
M  END
>  <docking_score>  (3) 
-3.9780000000000002

$$$$
