
     RDKit          3D

 23 22  0  0  0  0  0  0  0  0999 V2000
   19.3724   -2.9572   -2.3591 C   0  0  0  0  0  0  0  0  0  0  0  0
   18.0760   -3.6998   -2.6651 C   0  0  0  0  0  0  0  0  0  0  0  0
   16.9958   -3.0866   -1.8292 C   0  0  0  0  0  0  0  0  0  0  0  0
   18.3223   -5.1295   -2.3405 C   0  0  0  0  0  0  0  0  0  0  0  0
   18.0667   -6.1131   -3.1920 C   0  0  0  0  0  0  0  0  0  0  0  0
   17.5153   -5.8646   -4.5341 C   0  0  2  0  0  0  0  0  0  0  0  0
   16.1084   -5.7547   -4.4652 O   0  0  0  0  0  0  0  0  0  0  0  0
   15.4211   -4.5740   -4.5032 C   0  0  0  0  0  0  0  0  0  0  0  0
   14.9642   -4.1383   -5.6816 C   0  0  0  0  0  0  0  0  0  0  0  0
   15.2254   -5.0381   -7.1573 Cl  0  0  0  0  0  0  0  0  0  0  0  0
   14.2369   -2.8666   -5.6492 C   0  0  0  0  0  0  0  0  0  0  0  0
   14.8899   -1.7264   -5.6616 C   0  0  0  0  0  0  0  0  0  0  0  0
   14.1164   -0.4619   -5.6276 C   0  0  0  0  0  0  0  0  0  0  0  0
   13.8124   -0.0626   -4.2501 C   0  0  0  0  0  0  0  0  0  0  0  0
   14.3451   -0.5581   -3.2943 O   0  0  0  0  0  0  0  0  0  0  0  0
   16.2805   -1.7208   -5.7056 O   0  0  0  0  0  0  0  0  0  0  0  0
   16.9820   -1.8441   -6.9333 C   0  0  0  0  0  0  0  0  0  0  0  0
   18.2842   -3.0369   -6.6605 Cl  0  0  0  0  0  0  0  0  0  0  0  0
   18.0160   -6.7307   -5.5974 C   0  0  0  0  0  0  0  0  0  0  0  0
   19.4468   -6.8110   -5.8593 C   0  0  0  0  0  0  0  0  0  0  0  0
   20.2761   -7.9031   -5.3755 C   0  0  0  0  0  0  0  0  0  0  0  0
   21.1889   -7.6678   -4.3902 O   0  0  0  0  0  0  0  0  0  0  0  0
   21.3824   -8.8176   -3.7433 O   0  0  0  0  0  0  0  0  0  0  0  0
  1  2  1  0
  2  3  1  0
  2  4  1  0
  4  5  2  3
  5  6  1  0
  6  7  1  0
  7  8  1  0
  8  9  2  3
  9 10  1  0
  9 11  1  0
 11 12  2  3
 12 13  1  0
 13 14  1  0
 14 15  2  0
 12 16  1  0
 16 17  1  0
 17 18  1  0
  6 19  1  6
 19 20  1  0
 20 21  1  0
 21 22  1  0
 22 23  1  0
M  END
>  <docking_score>  (1) 
-3.4180000000000001

$$$$

     RDKit          3D

 23 22  0  0  0  0  0  0  0  0999 V2000
   15.3972   -3.2265   -4.6670 C   0  0  0  0  0  0  0  0  0  0  0  0
   15.0637   -1.8000   -4.2431 C   0  0  0  0  0  0  0  0  0  0  0  0
   15.5379   -0.8836   -5.3279 C   0  0  0  0  0  0  0  0  0  0  0  0
   15.7543   -1.5732   -2.9463 C   0  0  0  0  0  0  0  0  0  0  0  0
   17.0516   -1.7882   -2.7768 C   0  0  0  0  0  0  0  0  0  0  0  0
   17.9150   -2.2716   -3.8668 C   0  0  2  0  0  0  0  0  0  0  0  0
   18.7188   -3.3394   -3.4085 O   0  0  0  0  0  0  0  0  0  0  0  0
   18.8457   -4.5419   -4.0454 C   0  0  0  0  0  0  0  0  0  0  0  0
   18.0757   -5.5598   -3.6479 C   0  0  0  0  0  0  0  0  0  0  0  0
   16.9234   -5.3853   -2.3452 Cl  0  0  0  0  0  0  0  0  0  0  0  0
   18.2639   -6.8188   -4.3736 C   0  0  0  0  0  0  0  0  0  0  0  0
   17.5498   -7.0823   -5.4447 C   0  0  0  0  0  0  0  0  0  0  0  0
   17.7709   -8.3676   -6.1501 C   0  0  0  0  0  0  0  0  0  0  0  0
   17.2630   -9.4975   -5.3660 C   0  0  0  0  0  0  0  0  0  0  0  0
   16.7535  -10.4631   -5.8671 O   0  0  0  0  0  0  0  0  0  0  0  0
   16.6076   -6.1638   -5.8968 O   0  0  0  0  0  0  0  0  0  0  0  0
   15.2536   -6.5351   -6.1052 C   0  0  0  0  0  0  0  0  0  0  0  0
   14.6123   -7.0426   -4.5164 Cl  0  0  0  0  0  0  0  0  0  0  0  0
   18.6257   -1.2418   -4.6190 C   0  0  0  0  0  0  0  0  0  0  0  0
   19.7022   -0.4901   -3.9879 C   0  0  0  0  0  0  0  0  0  0  0  0
   20.4835    0.5116   -4.6956 C   0  0  0  0  0  0  0  0  0  0  0  0
   19.8445    1.5226   -5.3504 O   0  0  0  0  0  0  0  0  0  0  0  0
   20.6749    1.9768   -6.2895 O   0  0  0  0  0  0  0  0  0  0  0  0
  1  2  1  0
  2  3  1  0
  2  4  1  0
  4  5  2  3
  5  6  1  0
  6  7  1  0
  7  8  1  0
  8  9  2  3
  9 10  1  0
  9 11  1  0
 11 12  2  3
 12 13  1  0
 13 14  1  0
 14 15  2  0
 12 16  1  0
 16 17  1  0
 17 18  1  0
  6 19  1  1
 19 20  1  0
 20 21  1  0
 21 22  1  0
 22 23  1  0
M  END
>  <docking_score>  (2) 
-3.181

$$$$

     RDKit          3D

 23 22  0  0  0  0  0  0  0  0999 V2000
    8.2009   12.1054    3.6042 C   0  0  0  0  0  0  0  0  0  0  0  0
    6.7666   11.9376    3.1139 C   0  0  0  0  0  0  0  0  0  0  0  0
    6.7729   10.8835    2.0506 C   0  0  0  0  0  0  0  0  0  0  0  0
    6.3343   13.2684    2.6118 C   0  0  0  0  0  0  0  0  0  0  0  0
    5.5228   14.0641    3.2946 C   0  0  0  0  0  0  0  0  0  0  0  0
    4.9830   13.6892    4.6119 C   0  0  2  0  0  0  0  0  0  0  0  0
    3.5966   13.4363    4.5113 O   0  0  0  0  0  0  0  0  0  0  0  0
    3.0512   12.2202    4.2090 C   0  0  0  0  0  0  0  0  0  0  0  0
    2.8577   11.3429    5.1990 C   0  0  0  0  0  0  0  0  0  0  0  0
    3.2833   11.7161    6.8528 Cl  0  0  0  0  0  0  0  0  0  0  0  0
    2.2700   10.0601    4.8041 C   0  0  0  0  0  0  0  0  0  0  0  0
    3.0300    9.0967    4.3342 C   0  0  0  0  0  0  0  0  0  0  0  0
    2.3960    7.8139    3.9459 C   0  0  0  0  0  0  0  0  0  0  0  0
    3.0545    7.2300    2.7733 C   0  0  0  0  0  0  0  0  0  0  0  0
    3.8098    6.2987    2.8452 O   0  0  0  0  0  0  0  0  0  0  0  0
    4.4020    9.2906    4.2088 O   0  0  0  0  0  0  0  0  0  0  0  0
    5.3158    8.7350    5.1421 C   0  0  0  0  0  0  0  0  0  0  0  0
    6.1771   10.1084    5.8938 Cl  0  0  0  0  0  0  0  0  0  0  0  0
    5.3754   14.5462    5.7268 C   0  0  0  0  0  0  0  0  0  0  0  0
    6.6557   14.3391    6.3902 C   0  0  0  0  0  0  0  0  0  0  0  0
    7.7978   15.2164    6.1896 C   0  0  0  0  0  0  0  0  0  0  0  0
    8.0742   15.6840    4.9389 O   0  0  0  0  0  0  0  0  0  0  0  0
    9.2902   15.2471    4.6097 O   0  0  0  0  0  0  0  0  0  0  0  0
  1  2  1  0
  2  3  1  0
  2  4  1  0
  4  5  2  3
  5  6  1  0
  6  7  1  0
  7  8  1  0
  8  9  2  3
  9 10  1  0
  9 11  1  0
 11 12  2  3
 12 13  1  0
 13 14  1  0
 14 15  2  0
 12 16  1  0
 16 17  1  0
 17 18  1  0
  6 19  1  1
 19 20  1  0
 20 21  1  0
 21 22  1  0
 22 23  1  0
M  END
>  <docking_score>  (3) 
-3.0649999999999999

$$$$
