
     RDKit          3D

 24 23  0  0  0  0  0  0  0  0999 V2000
   18.3655   -3.2554   -1.6404 C   0  0  0  0  0  0  0  0  0  0  0  0
   19.9036   -3.2760   -1.7788 C   0  0  0  0  0  0  0  0  0  0  0  0
   20.3046   -1.8904   -2.1857 C   0  0  0  0  0  0  0  0  0  0  0  0
   20.3638   -3.5234   -0.4844 O   0  0  0  0  0  0  0  0  0  0  0  0
   20.2217   -4.3408   -2.7438 C   0  0  0  0  0  0  0  0  0  0  0  0
   19.3913   -4.5519   -3.9185 C   0  0  0  0  0  0  0  0  0  0  0  0
   19.3871   -5.8132   -4.6188 C   0  0  0  0  0  0  0  0  0  0  0  0
   19.7484   -6.8670   -4.1473 O   0  0  0  0  0  0  0  0  0  0  0  0
   18.8974   -5.8277   -6.0443 C   0  0  1  0  0  0  0  0  0  0  0  0
   18.5149   -4.4286   -6.4690 C   0  0  0  0  0  0  0  0  0  0  0  0
   19.9888   -6.3643   -6.9320 C   0  0  0  0  0  2  0  0  0  0  0  0
   17.6804   -6.7095   -6.2048 C   0  0  0  0  0  0  0  0  0  0  0  0
   16.5411   -6.0128   -5.4929 C   0  0  2  0  0  0  0  0  0  0  0  0
   16.2552   -6.6421   -4.3009 O   0  0  0  0  0  0  0  0  0  0  0  0
   15.4262   -5.9873   -6.3210 O   0  0  0  0  0  0  0  0  0  0  0  0
   14.7655   -4.8324   -6.2651 N   0  0  0  0  0  4  0  0  0  0  0  0
   14.9266   -4.1497   -7.5534 C   0  0  0  0  0  0  0  0  0  0  0  0
   13.3266   -5.0867   -6.1109 C   0  0  0  0  0  0  0  0  0  0  0  0
   15.1585   -3.9547   -5.2024 C   0  0  0  0  0  0  0  0  0  0  0  0
   15.3306   -2.5271   -5.6223 C   0  0  0  0  0  3  0  0  0  0  0  0
   14.8224   -1.5606   -4.6145 C   0  0  0  0  0  0  0  0  0  0  0  0
   15.3135   -1.6706   -3.3212 O   0  0  0  0  0  1  0  0  0  0  0  0
   13.9422   -0.6335   -4.9241 C   0  0  0  0  0  0  0  0  0  0  0  0
   13.4998    0.2411   -3.9548 O   0  0  0  0  0  1  0  0  0  0  0  0
  1  2  1  0
  2  3  1  0
  2  4  1  0
  2  5  1  0
  5  6  1  0
  6  7  1  0
  7  8  2  0
  7  9  1  0
  9 10  1  6
  9 11  1  0
  9 12  1  0
 12 13  1  0
 13 14  1  1
 13 15  1  0
 15 16  1  0
 16 17  1  0
 16 18  1  0
 16 19  1  0
 19 20  1  0
 20 21  1  0
 21 22  1  0
 21 23  2  3
 23 24  1  0
M  CHG  3  16   1  22  -1  24  -1
M  RAD  2  11   3  20   2
M  END
>  <docking_score>  (1) 
-3.7029999999999998

$$$$

     RDKit          3D

 24 23  0  0  0  0  0  0  0  0999 V2000
    4.8942    8.4009    3.8086 C   0  0  0  0  0  0  0  0  0  0  0  0
    4.8646    9.8263    3.2147 C   0  0  0  0  0  0  0  0  0  0  0  0
    4.6221    9.6612    1.7450 C   0  0  0  0  0  0  0  0  0  0  0  0
    3.7448   10.4209    3.7987 O   0  0  0  0  0  0  0  0  0  0  0  0
    6.1417   10.4585    3.5829 C   0  0  0  0  0  0  0  0  0  0  0  0
    6.9241   11.1839    2.5952 C   0  0  0  0  0  0  0  0  0  0  0  0
    6.5781   12.5283    2.2025 C   0  0  0  0  0  0  0  0  0  0  0  0
    5.7437   12.8137    1.3744 O   0  0  0  0  0  0  0  0  0  0  0  0
    7.3057   13.6678    2.8690 C   0  0  1  0  0  0  0  0  0  0  0  0
    8.1219   13.1461    4.0290 C   0  0  0  0  0  0  0  0  0  0  0  0
    8.1997   14.3363    1.8585 C   0  0  0  0  0  2  0  0  0  0  0  0
    6.3439   14.7020    3.4074 C   0  0  0  0  0  0  0  0  0  0  0  0
    5.6506   14.0740    4.5970 C   0  0  2  0  0  0  0  0  0  0  0  0
    4.3142   13.8712    4.3297 O   0  0  0  0  0  0  0  0  0  0  0  0
    5.8165   14.8879    5.7104 O   0  0  0  0  0  0  0  0  0  0  0  0
    5.4747   14.2857    6.8480 N   0  0  0  0  0  4  0  0  0  0  0  0
    6.5166   14.5611    7.8431 C   0  0  0  0  0  0  0  0  0  0  0  0
    4.2365   14.8764    7.3738 C   0  0  0  0  0  0  0  0  0  0  0  0
    5.2632   12.8714    6.7508 C   0  0  0  0  0  0  0  0  0  0  0  0
    4.3438   12.3188    7.7964 C   0  0  0  0  0  3  0  0  0  0  0  0
    4.2637   10.8352    7.7731 C   0  0  0  0  0  0  0  0  0  0  0  0
    5.0607   10.1680    6.8534 O   0  0  0  0  0  1  0  0  0  0  0  0
    3.4729   10.1699    8.5866 C   0  0  0  0  0  0  0  0  0  0  0  0
    3.4323    8.7932    8.5279 O   0  0  0  0  0  1  0  0  0  0  0  0
  1  2  1  0
  2  3  1  0
  2  4  1  0
  2  5  1  0
  5  6  1  0
  6  7  1  0
  7  8  2  0
  7  9  1  0
  9 10  1  1
  9 11  1  0
  9 12  1  0
 12 13  1  0
 13 14  1  6
 13 15  1  0
 15 16  1  0
 16 17  1  0
 16 18  1  0
 16 19  1  0
 19 20  1  0
 20 21  1  0
 21 22  1  0
 21 23  2  3
 23 24  1  0
M  CHG  3  16   1  22  -1  24  -1
M  RAD  2  11   3  20   2
M  END
>  <docking_score>  (2) 
-2.6120000000000001

$$$$

     RDKit          3D

 24 23  0  0  0  0  0  0  0  0999 V2000
   18.6169   -8.8020   -6.2759 C   0  0  0  0  0  0  0  0  0  0  0  0
   18.9156   -7.6220   -5.3253 C   0  0  0  0  0  0  0  0  0  0  0  0
   19.4834   -8.2254   -4.0764 C   0  0  0  0  0  0  0  0  0  0  0  0
   19.9144   -6.8970   -5.9775 O   0  0  0  0  0  0  0  0  0  0  0  0
   17.6505   -6.8882   -5.1604 C   0  0  0  0  0  0  0  0  0  0  0  0
   17.6453   -5.5101   -4.6968 C   0  0  0  0  0  0  0  0  0  0  0  0
   16.9040   -5.1147   -3.5240 C   0  0  0  0  0  0  0  0  0  0  0  0
   15.8092   -5.5332   -3.2245 O   0  0  0  0  0  0  0  0  0  0  0  0
   17.5333   -4.1057   -2.5979 C   0  0  1  0  0  0  0  0  0  0  0  0
   16.7417   -4.0258   -1.3130 C   0  0  0  0  0  0  0  0  0  0  0  0
   18.9527   -4.5200   -2.3133 C   0  0  0  0  0  2  0  0  0  0  0  0
   17.5577   -2.7256   -3.2136 C   0  0  0  0  0  0  0  0  0  0  0  0
   19.0090   -2.3981   -3.4903 C   0  0  2  0  0  0  0  0  0  0  0  0
   19.3151   -1.1309   -3.0442 O   0  0  0  0  0  0  0  0  0  0  0  0
   19.2580   -2.5190   -4.8515 O   0  0  0  0  0  0  0  0  0  0  0  0
   19.0585   -1.3833   -5.5178 N   0  0  0  0  0  4  0  0  0  0  0  0
   19.9169   -0.3499   -4.9289 C   0  0  0  0  0  0  0  0  0  0  0  0
   19.4969   -1.5378   -6.9115 C   0  0  0  0  0  0  0  0  0  0  0  0
   17.7015   -0.9230   -5.5475 C   0  0  0  0  0  0  0  0  0  0  0  0
   16.8544   -1.5876   -6.5891 C   0  0  0  0  0  3  0  0  0  0  0  0
   15.4591   -1.8256   -6.1369 C   0  0  0  0  0  0  0  0  0  0  0  0
   14.5827   -0.7505   -6.1798 O   0  0  0  0  0  1  0  0  0  0  0  0
   15.0590   -3.0039   -5.7108 C   0  0  0  0  0  0  0  0  0  0  0  0
   13.7543   -3.1767   -5.3011 O   0  0  0  0  0  1  0  0  0  0  0  0
  1  2  1  0
  2  3  1  0
  2  4  1  0
  2  5  1  0
  5  6  1  0
  6  7  1  0
  7  8  2  0
  7  9  1  0
  9 10  1  1
  9 11  1  0
  9 12  1  0
 12 13  1  0
 13 14  1  6
 13 15  1  0
 15 16  1  0
 16 17  1  0
 16 18  1  0
 16 19  1  0
 19 20  1  0
 20 21  1  0
 21 22  1  0
 21 23  2  3
 23 24  1  0
M  CHG  3  16   1  22  -1  24  -1
M  RAD  2  11   3  20   2
M  END
>  <docking_score>  (3) 
-1.978

$$$$
