
     RDKit          3D

 29 29  0  0  0  0  0  0  0  0999 V2000
    3.8196    6.1687    5.9250 C   0  0  0  0  0  0  0  0  0  0  0  0
    3.1240    6.8852    4.7796 C   0  0  1  0  0  0  0  0  0  0  0  0
    2.4575    8.1287    5.3072 C   0  0  0  0  0  0  0  0  0  0  0  0
    4.1782    7.2142    3.7571 C   0  0  0  0  0  0  0  0  0  0  0  0
    4.6989    8.6235    3.8824 C   0  0  0  0  0  0  0  0  0  0  0  0
    4.0884    9.4767    2.8102 C   0  0  0  0  0  0  0  0  0  0  0  0
    5.0712   10.3913    2.1410 C   0  0  1  0  0  0  0  0  0  0  0  0
    4.2687   11.4877    1.4480 C   0  0  0  0  0  0  0  0  0  0  0  0
    6.0727   10.9891    3.0959 C   0  0  0  0  0  3  0  0  0  0  0  0
    5.4013   11.5616    4.3272 C   0  0  0  0  0  0  0  0  0  0  0  0
    5.1211   13.0421    4.1859 C   0  0  0  0  0  0  0  0  0  0  0  0
    5.8250   13.8360    5.2488 C   0  0  2  0  0  0  0  0  0  0  0  0
    7.2141   13.2916    5.5348 C   0  0  0  0  0  0  0  0  0  0  0  0
    5.0111   14.0132    6.4989 C   0  0  0  0  0  3  0  0  0  0  0  0
    5.7252   15.0576    7.3522 C   0  0  0  0  0  0  0  0  0  0  0  0
    5.7569   14.5528    8.7777 C   0  0  1  0  0  0  0  0  0  0  0  0
    6.1084   15.7071    9.7041 C   0  0  0  0  0  0  0  0  0  0  0  0
    4.4132   13.9899    9.2097 C   0  0  0  0  0  0  0  0  0  0  0  0
    4.5927   12.5244    9.5148 C   0  0  0  0  0  3  0  0  0  0  0  0
    4.3607   12.2778   10.9809 C   0  0  2  0  0  0  0  0  0  0  0  0
    5.5437   12.3469   11.7109 O   0  0  0  0  0  0  0  0  0  0  0  0
    3.7301   10.9170   11.1253 C   0  0  1  0  0  0  0  0  0  0  0  0
    2.3012   10.9884   10.6598 C   0  0  0  0  0  0  0  0  0  0  0  0
    4.4576   10.0190   10.3284 O   0  0  0  0  0  0  0  0  0  0  0  0
    4.2744    8.7704   10.8108 N   0  0  0  0  0  0  0  0  0  0  0  0
    3.1230    8.1564   10.1540 C   0  0  0  0  0  0  0  0  0  0  0  0
    3.6926    7.5098    8.5469 S   0  0  0  0  0  0  0  0  0  0  0  0
    2.2590    6.7673    7.7023 C   0  0  0  0  0  0  0  0  0  0  0  0
    2.7559    5.6114    6.8576 C   0  0  0  0  0  3  0  0  0  0  0  0
  1  2  1  0
  2  3  1  1
  2  4  1  0
  4  5  1  0
  5  6  1  0
  6  7  1  0
  7  8  1  1
  7  9  1  0
  9 10  1  0
 10 11  1  0
 11 12  1  0
 12 13  1  1
 12 14  1  0
 14 15  1  0
 15 16  1  0
 16 17  1  1
 16 18  1  0
 18 19  1  0
 19 20  1  0
 20 21  1  1
 20 22  1  0
 22 23  1  6
 22 24  1  0
 24 25  1  0
 25 26  1  0
 26 27  1  0
 27 28  1  0
 28 29  1  0
 29  1  1  0
M  RAD  4   9   2  14   2  19   2  29   2
M  END
>  <docking_score>  (1) 
-3.3250000000000002

$$$$

     RDKit          3D

 29 29  0  0  0  0  0  0  0  0999 V2000
    4.2581    6.9771    4.1531 C   0  0  0  0  0  0  0  0  0  0  0  0
    3.5219    7.9723    3.2715 C   0  0  1  0  0  0  0  0  0  0  0  0
    2.7432    8.9223    4.1432 C   0  0  0  0  0  0  0  0  0  0  0  0
    4.5600    8.6948    2.4559 C   0  0  0  0  0  0  0  0  0  0  0  0
    4.9562   10.0219    3.0515 C   0  0  0  0  0  0  0  0  0  0  0  0
    4.2920   11.1285    2.2869 C   0  0  0  0  0  0  0  0  0  0  0  0
    5.2034   12.2827    1.9913 C   0  0  1  0  0  0  0  0  0  0  0  0
    4.3210   13.4807    1.6556 C   0  0  0  0  0  0  0  0  0  0  0  0
    6.1348   12.6116    3.1299 C   0  0  0  0  0  3  0  0  0  0  0  0
    5.3975   12.7001    4.4503 C   0  0  0  0  0  0  0  0  0  0  0  0
    4.9939   14.1203    4.7824 C   0  0  0  0  0  0  0  0  0  0  0  0
    5.6104   14.5764    6.0737 C   0  0  2  0  0  0  0  0  0  0  0  0
    7.0363   14.0756    6.2278 C   0  0  0  0  0  0  0  0  0  0  0  0
    4.7646   14.2753    7.2781 C   0  0  0  0  0  3  0  0  0  0  0  0
    5.3731   15.0365    8.4525 C   0  0  0  0  0  0  0  0  0  0  0  0
    5.4254   14.0996    9.6388 C   0  0  1  0  0  0  0  0  0  0  0  0
    5.6621   14.9131   10.9023 C   0  0  0  0  0  0  0  0  0  0  0  0
    4.1281   13.3266    9.8082 C   0  0  0  0  0  0  0  0  0  0  0  0
    4.4275   11.8596    9.6314 C   0  0  0  0  0  3  0  0  0  0  0  0
    4.1943   11.1329   10.9282 C   0  0  2  0  0  0  0  0  0  0  0  0
    5.3554   11.0503   11.6913 O   0  0  0  0  0  0  0  0  0  0  0  0
    3.6803    9.7554   10.5986 C   0  0  1  0  0  0  0  0  0  0  0  0
    2.2580    9.8657   10.1204 C   0  0  0  0  0  0  0  0  0  0  0  0
    4.4945    9.2232    9.5864 O   0  0  0  0  0  0  0  0  0  0  0  0
    4.4111    7.8755    9.6317 N   0  0  0  0  0  0  0  0  0  0  0  0
    3.3271    7.4229    8.7634 C   0  0  0  0  0  0  0  0  0  0  0  0
    3.9753    7.3792    7.0595 S   0  0  0  0  0  0  0  0  0  0  0  0
    2.6240    6.8453    5.9601 C   0  0  0  0  0  0  0  0  0  0  0  0
    3.2313    6.0679    4.8095 C   0  0  0  0  0  3  0  0  0  0  0  0
  1  2  1  0
  2  3  1  1
  2  4  1  0
  4  5  1  0
  5  6  1  0
  6  7  1  0
  7  8  1  1
  7  9  1  0
  9 10  1  0
 10 11  1  0
 11 12  1  0
 12 13  1  1
 12 14  1  0
 14 15  1  0
 15 16  1  0
 16 17  1  1
 16 18  1  0
 18 19  1  0
 19 20  1  0
 20 21  1  6
 20 22  1  0
 22 23  1  6
 22 24  1  0
 24 25  1  0
 25 26  1  0
 26 27  1  0
 27 28  1  0
 28 29  1  0
 29  1  1  0
M  RAD  4   9   2  14   2  19   2  29   2
M  END
>  <docking_score>  (2) 
-2.9820000000000002

$$$$

     RDKit          3D

 29 29  0  0  0  0  0  0  0  0999 V2000
    3.8335   10.1725   11.2475 C   0  0  0  0  0  0  0  0  0  0  0  0
    2.7039    9.6397   10.3816 C   0  0  1  0  0  0  0  0  0  0  0  0
    2.3418   10.6757    9.3500 C   0  0  0  0  0  0  0  0  0  0  0  0
    3.1972    8.3704    9.7411 C   0  0  0  0  0  0  0  0  0  0  0  0
    3.7220    8.5826    8.3438 C   0  0  0  0  0  0  0  0  0  0  0  0
    2.7014    8.1088    7.3517 C   0  0  0  0  0  0  0  0  0  0  0  0
    3.2881    7.3142    6.2227 C   0  0  1  0  0  0  0  0  0  0  0  0
    2.2635    7.3102    5.0928 C   0  0  0  0  0  0  0  0  0  0  0  0
    4.6097    7.8543    5.7393 C   0  0  0  0  0  3  0  0  0  0  0  0
    4.5535    9.3503    5.5078 C   0  0  0  0  0  0  0  0  0  0  0  0
    4.2421    9.6916    4.0667 C   0  0  0  0  0  0  0  0  0  0  0  0
    5.3451   10.4997    3.4453 C   0  0  2  0  0  0  0  0  0  0  0  0
    6.7164   10.0241    3.8937 C   0  0  0  0  0  0  0  0  0  0  0  0
    5.1688   11.9816    3.6166 C   0  0  0  0  0  3  0  0  0  0  0  0
    6.1884   12.6606    2.7067 C   0  0  0  0  0  0  0  0  0  0  0  0
    6.8469   13.7728    3.4923 C   0  0  1  0  0  0  0  0  0  0  0  0
    7.5740   14.6974    2.5276 C   0  0  0  0  0  0  0  0  0  0  0  0
    5.8322   14.5976    4.2663 C   0  0  0  0  0  0  0  0  0  0  0  0
    6.1258   14.4460    5.7373 C   0  0  0  0  0  3  0  0  0  0  0  0
    6.5662   15.7673    6.3071 C   0  0  2  0  0  0  0  0  0  0  0  0
    7.9503   15.9103    6.2725 O   0  0  0  0  0  0  0  0  0  0  0  0
    6.0624   15.8488    7.7247 C   0  0  1  0  0  0  0  0  0  0  0  0
    4.5751   16.0750    7.7029 C   0  0  0  0  0  0  0  0  0  0  0  0
    6.3607   14.6319    8.3579 O   0  0  0  0  0  0  0  0  0  0  0  0
    6.4077   14.8415    9.6918 N   0  0  0  0  0  0  0  0  0  0  0  0
    5.0836   14.6222   10.2685 C   0  0  0  0  0  0  0  0  0  0  0  0
    4.8820   12.8251   10.5038 S   0  0  0  0  0  0  0  0  0  0  0  0
    3.2215   12.5338   11.1948 C   0  0  0  0  0  0  0  0  0  0  0  0
    3.2914   11.3146   12.0922 C   0  0  0  0  0  3  0  0  0  0  0  0
  1  2  1  0
  2  3  1  6
  2  4  1  0
  4  5  1  0
  5  6  1  0
  6  7  1  0
  7  8  1  6
  7  9  1  0
  9 10  1  0
 10 11  1  0
 11 12  1  0
 12 13  1  1
 12 14  1  0
 14 15  1  0
 15 16  1  0
 16 17  1  6
 16 18  1  0
 18 19  1  0
 19 20  1  0
 20 21  1  1
 20 22  1  0
 22 23  1  6
 22 24  1  0
 24 25  1  0
 25 26  1  0
 26 27  1  0
 27 28  1  0
 28 29  1  0
 29  1  1  0
M  RAD  4   9   2  14   2  19   2  29   2
M  END
>  <docking_score>  (3) 
-0.71299999999999997

$$$$
