
     RDKit          3D

 21 22  0  0  0  0  0  0  0  0999 V2000
   13.0988   -5.3604   -8.4145 C   0  0  0  0  0  0  0  0  0  0  0  0
   13.2705   -5.8538   -7.1241 O   0  0  0  0  0  0  0  0  0  0  0  0
   14.2061   -5.3585   -6.2207 C   0  0  0  0  0  0  0  0  0  0  0  0
   15.2596   -6.0377   -5.6549 C   0  0  0  0  0  0  0  0  0  0  0  0
   15.6009   -4.9711   -5.0035 C   0  0  0  0  0  0  0  0  0  0  0  0
   15.5881   -4.0026   -4.6604 C   0  0  0  0  0  0  0  0  0  0  0  0
   14.6443   -3.1330   -5.0694 C   0  0  0  0  0  0  0  0  0  0  0  0
   13.9549   -3.9265   -5.8918 C   0  0  0  0  0  0  0  0  0  0  0  0
   15.4652   -2.2725   -4.1210 C   0  0  2  0  0  0  0  0  0  0  0  0
   16.1295   -1.1512   -4.8786 C   0  0  0  0  0  0  0  0  0  0  0  0
   15.1348   -0.6537   -5.8659 C   0  0  0  0  0  0  0  0  0  0  0  0
   14.0786    0.0604   -5.5368 C   0  0  0  0  0  0  0  0  0  0  0  0
   13.7126    0.4759   -4.1778 C   0  0  0  0  0  0  0  0  0  0  0  0
   16.7587   -3.1858   -3.6334 C   0  0  0  0  0  0  0  0  0  0  0  0
   16.7211   -4.5253   -3.4388 N   0  0  0  0  0  3  0  0  0  0  0  0
   16.3668   -4.7673   -2.0074 C   0  0  0  0  0  0  0  0  0  0  0  0
   17.0236   -5.7806   -3.9331 C   0  0  0  0  0  0  0  0  0  0  0  0
   16.4243   -6.5993   -4.9593 C   0  0  0  0  0  0  0  0  0  0  0  0
   17.1074   -7.8506   -5.1009 C   0  0  0  0  0  0  0  0  0  0  0  0
   16.5310   -8.8341   -5.6915 N   0  0  0  0  0  3  0  0  0  0  0  0
   17.3125  -10.0727   -5.7863 C   0  0  0  0  0  0  0  0  0  0  0  0
  1  2  1  0
  2  3  1  0
  3  4  2  0
  4  5  1  0
  5  6  2  0
  6  7  1  0
  7  8  2  0
  7  9  1  0
  9 10  1  6
 10 11  1  0
 11 12  2  3
 12 13  1  0
  9 14  1  0
 14 15  1  0
 15 16  1  0
 15 17  1  0
 17 18  2  3
 18 19  1  0
 19 20  2  3
 20 21  1  0
  8  3  1  0
 18  4  1  0
M  CHG  2  15   1  20   1
M  RAD  2  15   2  20   2
M  END
>  <docking_score>  (1) 
-5.2560000000000002

$$$$

     RDKit          3D

 21 22  0  0  0  0  0  0  0  0999 V2000
   19.3178   -2.5562   -1.7740 C   0  0  0  0  0  0  0  0  0  0  0  0
   19.1572   -3.9375   -1.8397 O   0  0  0  0  0  0  0  0  0  0  0  0
   18.3704   -4.5842   -2.7880 C   0  0  0  0  0  0  0  0  0  0  0  0
   17.2159   -4.1178   -3.3718 C   0  0  0  0  0  0  0  0  0  0  0  0
   17.1223   -5.2085   -4.0647 C   0  0  0  0  0  0  0  0  0  0  0  0
   17.3452   -6.1413   -4.4335 C   0  0  0  0  0  0  0  0  0  0  0  0
   18.4342   -6.8129   -4.0124 C   0  0  0  0  0  0  0  0  0  0  0  0
   18.9212   -5.9223   -3.1459 C   0  0  0  0  0  0  0  0  0  0  0  0
   17.8360   -7.7919   -5.0111 C   0  0  2  0  0  0  0  0  0  0  0  0
   18.7727   -7.9838   -6.1768 C   0  0  0  0  0  0  0  0  0  0  0  0
   17.9226   -8.1590   -7.3844 C   0  0  0  0  0  0  0  0  0  0  0  0
   18.0989   -7.4845   -8.5015 C   0  0  0  0  0  0  0  0  0  0  0  0
   19.1353   -6.4731   -8.7392 C   0  0  0  0  0  0  0  0  0  0  0  0
   16.5421   -7.0355   -5.7171 C   0  0  0  0  0  0  0  0  0  0  0  0
   15.7238   -6.1636   -5.0815 N   0  0  0  0  0  3  0  0  0  0  0  0
   14.5921   -6.9450   -4.4972 C   0  0  0  0  0  0  0  0  0  0  0  0
   15.3755   -4.8433   -4.8648 C   0  0  0  0  0  0  0  0  0  0  0  0
   15.9798   -3.7855   -4.0911 C   0  0  0  0  0  0  0  0  0  0  0  0
   15.2231   -2.5720   -4.1765 C   0  0  0  0  0  0  0  0  0  0  0  0
   15.0167   -2.0225   -5.3182 N   0  0  0  0  0  3  0  0  0  0  0  0
   14.2309   -0.7830   -5.3010 C   0  0  0  0  0  0  0  0  0  0  0  0
  1  2  1  0
  2  3  1  0
  3  4  2  0
  4  5  1  0
  5  6  2  0
  6  7  1  0
  7  8  2  0
  7  9  1  0
  9 10  1  6
 10 11  1  0
 11 12  2  3
 12 13  1  0
  9 14  1  0
 14 15  1  0
 15 16  1  0
 15 17  1  0
 17 18  2  3
 18 19  1  0
 19 20  2  3
 20 21  1  0
  8  3  1  0
 18  4  1  0
M  CHG  2  15   1  20   1
M  RAD  2  15   2  20   2
M  END
>  <docking_score>  (2) 
-4.9020000000000001

$$$$

     RDKit          3D

 21 22  0  0  0  0  0  0  0  0999 V2000
   18.5546   -8.2208   -4.6984 C   0  0  0  0  0  0  0  0  0  0  0  0
   17.7265   -7.4246   -5.4847 O   0  0  0  0  0  0  0  0  0  0  0  0
   17.4637   -6.0828   -5.2254 C   0  0  0  0  0  0  0  0  0  0  0  0
   16.4250   -5.3267   -5.7157 C   0  0  0  0  0  0  0  0  0  0  0  0
   16.8608   -4.2978   -5.0600 C   0  0  0  0  0  0  0  0  0  0  0  0
   17.4500   -3.7214   -4.4465 C   0  0  0  0  0  0  0  0  0  0  0  0
   18.5381   -4.2373   -3.8432 C   0  0  0  0  0  0  0  0  0  0  0  0
   18.4743   -5.4879   -4.3052 C   0  0  0  0  0  0  0  0  0  0  0  0
   18.5635   -2.7999   -3.3465 C   0  0  2  0  0  0  0  0  0  0  0  0
   18.3587   -2.7615   -1.8534 C   0  0  0  0  0  0  0  0  0  0  0  0
   19.5318   -3.4418   -1.2429 C   0  0  0  0  0  0  0  0  0  0  0  0
   20.6448   -2.8185   -0.9162 C   0  0  0  0  0  0  0  0  0  0  0  0
   20.9104   -1.3862   -1.0935 C   0  0  0  0  0  0  0  0  0  0  0  0
   17.1895   -2.0667   -3.9116 C   0  0  0  0  0  0  0  0  0  0  0  0
   16.6112   -2.3388   -5.1054 N   0  0  0  0  0  3  0  0  0  0  0  0
   17.1909   -1.4027   -6.1156 C   0  0  0  0  0  0  0  0  0  0  0  0
   15.5990   -2.9910   -5.7848 C   0  0  0  0  0  0  0  0  0  0  0  0
   15.3904   -4.3744   -6.1386 C   0  0  0  0  0  0  0  0  0  0  0  0
   14.1690   -4.5540   -6.8655 C   0  0  0  0  0  0  0  0  0  0  0  0
   14.1003   -5.4322   -7.7994 N   0  0  0  0  0  3  0  0  0  0  0  0
   12.8070   -5.5403   -8.4847 C   0  0  0  0  0  0  0  0  0  0  0  0
  1  2  1  0
  2  3  1  0
  3  4  2  0
  4  5  1  0
  5  6  2  0
  6  7  1  0
  7  8  2  0
  7  9  1  0
  9 10  1  1
 10 11  1  0
 11 12  2  3
 12 13  1  0
  9 14  1  0
 14 15  1  0
 15 16  1  0
 15 17  1  0
 17 18  2  3
 18 19  1  0
 19 20  2  3
 20 21  1  0
  8  3  1  0
 18  4  1  0
M  CHG  2  15   1  20   1
M  RAD  2  15   2  20   2
M  END
>  <docking_score>  (3) 
-4.8579999999999997

$$$$
