
     RDKit          3D

 17 18  0  0  0  0  0  0  0  0999 V2000
   13.4314   -5.3770   -7.2185 C   0  0  0  0  0  0  0  0  0  0  0  0
   14.7827   -4.7449   -6.9505 C   0  0  0  0  0  3  0  0  0  0  0  0
   15.0875   -4.9569   -5.4873 C   0  0  1  0  0  0  0  0  0  0  0  0
   15.6206   -6.3639   -5.2323 C   0  0  2  0  0  0  0  0  0  0  0  0
   14.6062   -7.0221   -4.5043 O   0  0  0  0  0  0  0  0  0  0  0  0
   16.7837   -6.2093   -4.2721 C   0  0  2  0  0  0  0  0  0  0  0  0
   16.3164   -5.5986   -3.1326 O   0  0  0  0  0  0  0  0  0  0  0  0
   17.8480   -5.4101   -4.9807 C   0  0  1  0  0  0  0  0  0  0  0  0
   18.2547   -6.1626   -6.0979 O   0  0  0  0  0  0  0  0  0  0  0  0
   17.3691   -4.1709   -5.3930 O   0  0  0  0  0  0  0  0  0  0  0  0
   16.0858   -3.9943   -4.9374 C   0  0  1  0  0  0  0  0  0  0  0  0
   15.6172   -2.5679   -4.9542 C   0  0  0  0  0  3  0  0  0  0  0  0
   15.6668   -2.0608   -3.5216 C   0  0  0  0  0  0  0  0  0  0  0  0
   16.9452   -2.6106   -2.9055 C   0  0  1  0  0  0  0  0  0  0  0  0
   17.5317   -1.5695   -2.1898 O   0  0  0  0  0  0  0  0  0  0  0  0
   16.6323   -3.7698   -1.9722 C   0  0  0  0  0  3  0  0  0  0  0  0
   17.2219   -4.9152   -2.4803 O   0  0  0  0  0  0  0  0  0  0  0  0
  1  2  1  0
  3  2  1  6
  3  4  1  0
  4  5  1  1
  4  6  1  0
  6  7  1  1
  6  8  1  0
  8  9  1  6
  8 10  1  0
 10 11  1  0
 11 12  1  6
 12 13  1  0
 13 14  1  0
 14 15  1  1
 14 16  1  0
 16 17  1  0
 11  3  1  0
 17  7  1  0
M  RAD  3   2   2  12   2  16   2
M  END
>  <docking_score>  (1) 
-5.0380000000000003

$$$$

     RDKit          3D

 17 18  0  0  0  0  0  0  0  0999 V2000
   14.6120   -6.2485   -5.2542 C   0  0  0  0  0  0  0  0  0  0  0  0
   15.6686   -6.0948   -4.1783 C   0  0  0  0  0  3  0  0  0  0  0  0
   16.6033   -4.9989   -4.6301 C   0  0  1  0  0  0  0  0  0  0  0  0
   16.1448   -4.3923   -5.9532 C   0  0  2  0  0  0  0  0  0  0  0  0
   17.1110   -4.7904   -6.9021 O   0  0  0  0  0  0  0  0  0  0  0  0
   16.3020   -2.8913   -5.8089 C   0  0  2  0  0  0  0  0  0  0  0  0
   17.6212   -2.6269   -5.5267 O   0  0  0  0  0  0  0  0  0  0  0  0
   15.3603   -2.4437   -4.7197 C   0  0  1  0  0  0  0  0  0  0  0  0
   14.0554   -2.7423   -5.1531 O   0  0  0  0  0  0  0  0  0  0  0  0
   15.6208   -3.0937   -3.5178 O   0  0  0  0  0  0  0  0  0  0  0  0
   16.7368   -3.8828   -3.6493 C   0  0  1  0  0  0  0  0  0  0  0  0
   17.3534   -4.2997   -2.3453 C   0  0  0  0  0  3  0  0  0  0  0  0
   18.5919   -3.4423   -2.1382 C   0  0  0  0  0  0  0  0  0  0  0  0
   18.2300   -2.0333   -2.5853 C   0  0  1  0  0  0  0  0  0  0  0  0
   18.7428   -1.1594   -1.6296 O   0  0  0  0  0  0  0  0  0  0  0  0
   18.8405   -1.7313   -3.9450 C   0  0  0  0  0  3  0  0  0  0  0  0
   17.8146   -1.5228   -4.8514 O   0  0  0  0  0  0  0  0  0  0  0  0
  1  2  1  0
  3  2  1  1
  3  4  1  0
  4  5  1  6
  4  6  1  0
  6  7  1  1
  6  8  1  0
  8  9  1  6
  8 10  1  0
 10 11  1  0
 11 12  1  1
 12 13  1  0
 13 14  1  0
 14 15  1  1
 14 16  1  0
 16 17  1  0
 11  3  1  0
 17  7  1  0
M  RAD  3   2   2  12   2  16   2
M  END
>  <docking_score>  (2) 
-4.8970000000000002

$$$$

     RDKit          3D

 17 18  0  0  0  0  0  0  0  0999 V2000
   14.2790   -0.3879   -5.6649 C   0  0  0  0  0  0  0  0  0  0  0  0
   15.3047   -1.3873   -6.1617 C   0  0  0  0  0  3  0  0  0  0  0  0
   15.2521   -2.5745   -5.2307 C   0  0  1  0  0  0  0  0  0  0  0  0
   14.7613   -3.8241   -5.9563 C   0  0  2  0  0  0  0  0  0  0  0  0
   13.4873   -4.0961   -5.4130 O   0  0  0  0  0  0  0  0  0  0  0  0
   15.6560   -4.9593   -5.4986 C   0  0  2  0  0  0  0  0  0  0  0  0
   15.5523   -5.0579   -4.1313 O   0  0  0  0  0  0  0  0  0  0  0  0
   17.0545   -4.6460   -5.9672 C   0  0  1  0  0  0  0  0  0  0  0  0
   17.0205   -4.6090   -7.3734 O   0  0  0  0  0  0  0  0  0  0  0  0
   17.4995   -3.4248   -5.4717 O   0  0  0  0  0  0  0  0  0  0  0  0
   16.5664   -2.9065   -4.6080 C   0  0  1  0  0  0  0  0  0  0  0  0
   17.0937   -1.8275   -3.7067 C   0  0  0  0  0  3  0  0  0  0  0  0
   17.2946   -2.4467   -2.3327 C   0  0  0  0  0  0  0  0  0  0  0  0
   17.8767   -3.8348   -2.5577 C   0  0  1  0  0  0  0  0  0  0  0  0
   18.9031   -4.0001   -1.6308 O   0  0  0  0  0  0  0  0  0  0  0  0
   16.8121   -4.9004   -2.3483 C   0  0  0  0  0  3  0  0  0  0  0  0
   16.6098   -5.5618   -3.5480 O   0  0  0  0  0  0  0  0  0  0  0  0
  1  2  1  0
  3  2  1  6
  3  4  1  0
  4  5  1  1
  4  6  1  0
  6  7  1  1
  6  8  1  0
  8  9  1  6
  8 10  1  0
 10 11  1  0
 11 12  1  6
 12 13  1  0
 13 14  1  0
 14 15  1  1
 14 16  1  0
 16 17  1  0
 11  3  1  0
 17  7  1  0
M  RAD  3   2   2  12   2  16   2
M  END
>  <docking_score>  (3) 
-4.875

$$$$
