
     RDKit          3D

 23 26  0  0  0  0  0  0  0  0999 V2000
   16.5655   -1.8421   -1.9960 C   0  0  0  0  0  0  0  0  0  0  0  0
   17.4507   -2.6462   -2.9548 C   0  0  1  0  0  0  0  0  0  0  0  0
   18.3339   -3.5149   -2.0831 C   0  0  0  0  0  0  0  0  0  0  0  0
   18.7191   -4.7983   -2.7363 C   0  0  2  0  0  0  0  0  0  0  0  0
   19.6274   -4.6672   -3.7653 O   0  0  0  0  0  0  0  0  0  0  0  0
   17.5397   -5.6653   -3.1009 C   0  0  2  0  0  0  0  0  0  0  0  0
   17.6192   -6.1162   -4.4272 O   0  0  0  0  0  0  0  0  0  0  0  0
   16.2958   -4.7926   -2.9681 C   0  0  1  0  0  0  0  0  0  0  0  0
   16.1366   -4.4646   -1.6205 O   0  0  0  0  0  0  0  0  0  0  0  0
   16.5853   -3.5320   -3.7796 C   0  0  1  0  0  0  0  0  0  0  0  0
   15.3398   -2.9490   -4.1812 N   0  0  0  0  0  0  0  0  0  0  0  0
   15.2587   -2.7040   -5.6032 C   0  0  1  0  0  0  0  0  0  0  0  0
   16.6755   -2.2701   -6.0313 C   0  0  0  0  0  0  0  0  0  0  0  0
   16.9888   -3.1702   -7.2302 C   0  0  0  0  0  3  0  0  0  0  0  0
   15.9491   -3.1246   -8.1658 O   0  0  0  0  0  0  0  0  0  0  0  0
   17.4592   -4.8191   -6.7578 S   0  0  0  0  0  0  0  0  0  0  0  0
   16.7709   -5.4507   -5.2623 C   0  0  1  0  0  0  0  0  0  0  0  0
   15.4142   -6.1061   -5.4164 C   0  0  1  0  0  0  0  0  0  0  0  0
   15.0578   -6.8654   -4.3341 O   0  0  0  0  0  0  0  0  0  0  0  0
   14.3364   -5.0559   -5.7505 C   0  0  2  0  0  0  0  0  0  0  0  0
   13.5209   -5.6827   -6.7212 O   0  0  0  0  0  0  0  0  0  0  0  0
   15.0829   -3.9763   -6.3963 C   0  0  1  0  0  0  0  0  0  0  0  0
   14.8298   -3.6639   -7.6941 O   0  0  0  0  0  0  0  0  0  0  0  0
  2  1  1  1
  2  3  1  0
  3  4  1  0
  4  5  1  6
  4  6  1  0
  6  7  1  6
  6  8  1  0
  8  9  1  1
  8 10  1  0
 10 11  1  1
 12 11  1  1
 12 13  1  0
 13 14  1  0
 14 15  1  0
 14 16  1  0
 16 17  1  0
 17 18  1  0
 18 19  1  1
 18 20  1  0
 20 21  1  6
 20 22  1  0
 22 23  1  6
 10  2  1  0
 17  7  1  6
 22 12  1  0
 23 15  1  0
M  RAD  1  14   2
M  END
>  <docking_score>  (1) 
-6.5990000000000002

$$$$

     RDKit          3D

 23 26  0  0  0  0  0  0  0  0999 V2000
   16.9283   -2.2542   -7.8817 C   0  0  0  0  0  0  0  0  0  0  0  0
   16.6005   -1.7536   -6.4705 C   0  0  1  0  0  0  0  0  0  0  0  0
   15.1131   -1.9693   -6.2828 C   0  0  0  0  0  0  0  0  0  0  0  0
   14.7336   -2.2240   -4.8639 C   0  0  2  0  0  0  0  0  0  0  0  0
   14.8176   -1.1204   -4.0416 O   0  0  0  0  0  0  0  0  0  0  0  0
   15.3926   -3.4465   -4.2752 C   0  0  2  0  0  0  0  0  0  0  0  0
   15.9766   -3.1705   -3.0295 O   0  0  0  0  0  0  0  0  0  0  0  0
   16.5006   -3.8555   -5.2405 C   0  0  1  0  0  0  0  0  0  0  0  0
   15.9064   -4.2697   -6.4340 O   0  0  0  0  0  0  0  0  0  0  0  0
   17.3272   -2.5946   -5.4811 C   0  0  1  0  0  0  0  0  0  0  0  0
   18.6485   -2.9810   -5.8778 N   0  0  0  0  0  0  0  0  0  0  0  0
   19.6847   -2.3665   -5.0794 C   0  0  1  0  0  0  0  0  0  0  0  0
   19.1803   -0.9422   -4.7694 C   0  0  0  0  0  0  0  0  0  0  0  0
   19.3445   -0.8166   -3.2518 C   0  0  0  0  0  3  0  0  0  0  0  0
   20.6386   -1.1819   -2.8642 O   0  0  0  0  0  0  0  0  0  0  0  0
   18.0604   -1.6457   -2.3423 S   0  0  0  0  0  0  0  0  0  0  0  0
   17.3347   -3.0654   -3.0953 C   0  0  1  0  0  0  0  0  0  0  0  0
   18.0688   -4.3647   -2.8367 C   0  0  1  0  0  0  0  0  0  0  0  0
   17.3248   -5.4727   -3.1428 O   0  0  0  0  0  0  0  0  0  0  0  0
   19.4278   -4.3770   -3.5642 C   0  0  2  0  0  0  0  0  0  0  0  0
   20.3177   -4.9732   -2.6409 O   0  0  0  0  0  0  0  0  0  0  0  0
   19.7717   -2.9612   -3.6946 C   0  0  1  0  0  0  0  0  0  0  0  0
   20.8736   -2.4742   -3.0664 O   0  0  0  0  0  0  0  0  0  0  0  0
  2  1  1  6
  2  3  1  0
  3  4  1  0
  4  5  1  1
  4  6  1  0
  6  7  1  1
  6  8  1  0
  8  9  1  6
  8 10  1  0
 10 11  1  6
 12 11  1  6
 12 13  1  0
 13 14  1  0
 14 15  1  0
 14 16  1  0
 16 17  1  0
 17 18  1  0
 18 19  1  6
 18 20  1  0
 20 21  1  1
 20 22  1  0
 22 23  1  6
 10  2  1  0
 17  7  1  1
 22 12  1  0
 23 15  1  0
M  RAD  1  14   2
M  END
>  <docking_score>  (2) 
-6.0129999999999999

$$$$

     RDKit          3D

 23 26  0  0  0  0  0  0  0  0999 V2000
   18.5682   -1.5440   -6.8983 C   0  0  0  0  0  0  0  0  0  0  0  0
   17.7125   -1.8433   -5.6623 C   0  0  1  0  0  0  0  0  0  0  0  0
   16.4745   -0.9798   -5.7888 C   0  0  0  0  0  0  0  0  0  0  0  0
   15.2711   -1.5860   -5.1511 C   0  0  2  0  0  0  0  0  0  0  0  0
   15.2950   -1.5915   -3.7725 O   0  0  0  0  0  0  0  0  0  0  0  0
   14.8886   -2.9223   -5.7372 C   0  0  2  0  0  0  0  0  0  0  0  0
   14.6764   -3.8841   -4.7379 O   0  0  0  0  0  0  0  0  0  0  0  0
   16.0646   -3.3780   -6.5950 C   0  0  1  0  0  0  0  0  0  0  0  0
   16.1828   -2.4990   -7.6731 O   0  0  0  0  0  0  0  0  0  0  0  0
   17.2968   -3.2715   -5.6996 C   0  0  1  0  0  0  0  0  0  0  0  0
   18.2967   -4.1749   -6.1859 N   0  0  0  0  0  0  0  0  0  0  0  0
   18.8014   -5.0669   -5.1669 C   0  0  1  0  0  0  0  0  0  0  0  0
   18.8456   -4.2332   -3.8701 C   0  0  0  0  0  0  0  0  0  0  0  0
   18.1189   -5.1093   -2.8452 C   0  0  0  0  0  3  0  0  0  0  0  0
   18.6471   -6.4051   -2.8419 O   0  0  0  0  0  0  0  0  0  0  0  0
   16.3491   -5.0545   -3.0139 S   0  0  0  0  0  0  0  0  0  0  0  0
   15.7073   -4.7705   -4.6315 C   0  0  1  0  0  0  0  0  0  0  0  0
   15.5403   -6.0175   -5.4748 C   0  0  1  0  0  0  0  0  0  0  0  0
   14.7496   -5.8204   -6.5753 O   0  0  0  0  0  0  0  0  0  0  0  0
   16.9132   -6.6018   -5.8618 C   0  0  2  0  0  0  0  0  0  0  0  0
   16.7500   -8.0010   -5.7370 O   0  0  0  0  0  0  0  0  0  0  0  0
   17.8060   -6.1405   -4.7988 C   0  0  1  0  0  0  0  0  0  0  0  0
   18.4049   -7.0453   -3.9811 O   0  0  0  0  0  0  0  0  0  0  0  0
  2  1  1  6
  2  3  1  0
  3  4  1  0
  4  5  1  1
  4  6  1  0
  6  7  1  1
  6  8  1  0
  8  9  1  6
  8 10  1  0
 10 11  1  6
 12 11  1  6
 12 13  1  0
 13 14  1  0
 14 15  1  0
 14 16  1  0
 16 17  1  0
 17 18  1  0
 18 19  1  6
 18 20  1  0
 20 21  1  1
 20 22  1  0
 22 23  1  6
 10  2  1  0
 17  7  1  1
 22 12  1  0
 23 15  1  0
M  RAD  1  14   2
M  END
>  <docking_score>  (3) 
-5.7009999999999996

$$$$
