
     RDKit          3D

 23 23  0  0  0  0  0  0  0  0999 V2000
   16.3600   -4.5961   -1.8564 C   0  0  0  0  0  0  0  0  0  0  0  0
   16.6352   -3.5366   -2.8571 C   0  0  1  0  0  0  0  0  0  0  0  0
   16.4497   -2.1315   -2.3946 C   0  0  0  0  0  0  0  0  0  0  0  0
   16.0547   -1.2971   -3.6192 C   0  0  2  0  0  0  0  0  0  0  0  0
   14.6438   -1.3105   -3.6391 O   0  0  0  0  0  0  0  0  0  0  0  0
   16.5139   -1.9902   -4.8930 C   0  0  2  0  0  0  0  0  0  0  0  0
   15.5744   -2.9924   -5.1621 O   0  0  0  0  0  0  0  0  0  0  0  0
   17.9019   -2.6005   -4.7120 C   0  0  1  0  0  0  0  0  0  0  0  0
   18.7564   -1.5640   -4.3495 O   0  0  0  0  0  0  0  0  0  0  0  0
   17.8744   -3.6997   -3.6698 C   0  0  1  0  0  0  0  0  0  0  0  0
   19.1006   -3.6558   -2.9383 N   0  0  0  0  0  0  0  0  0  0  0  0
   19.7200   -4.9437   -2.7135 C   0  0  0  0  0  3  0  0  0  0  0  0
   19.8304   -5.6708   -4.0087 C   0  0  0  0  0  0  0  0  0  0  0  0
   18.9855   -6.8844   -4.1508 C   0  0  2  0  0  0  0  0  0  0  0  0
   19.4814   -8.0054   -3.4948 O   0  0  0  0  0  0  0  0  0  0  0  0
   18.6765   -7.1636   -5.5983 C   0  0  1  0  0  0  0  0  0  0  0  0
   19.0409   -8.4935   -5.8420 O   0  0  0  0  0  0  0  0  0  0  0  0
   17.1816   -6.9824   -5.8699 C   0  0  1  0  0  0  0  0  0  0  0  0
   16.5465   -6.7924   -4.6437 O   0  0  0  0  0  0  0  0  0  0  0  0
   17.0528   -5.7239   -6.7185 C   0  0  1  0  0  0  0  0  0  0  0  0
   18.3030   -5.3656   -7.2060 O   0  0  0  0  0  0  0  0  0  0  0  0
   16.1150   -5.9677   -7.8829 C   0  0  0  0  0  3  0  0  0  0  0  0
   14.8704   -5.4382   -7.5845 O   0  0  0  0  0  0  0  0  0  0  0  0
  2  1  1  1
  2  3  1  0
  3  4  1  0
  4  5  1  6
  4  6  1  0
  6  7  1  1
  6  8  1  0
  8  9  1  1
  8 10  1  0
 10 11  1  1
 11 12  1  0
 12 13  1  0
 13 14  1  0
 14 15  1  6
 14 16  1  0
 16 17  1  1
 16 18  1  0
 18 19  1  1
 18 20  1  0
 20 21  1  6
 20 22  1  0
 22 23  1  0
 10  2  1  0
M  RAD  2  12   2  22   2
M  END
>  <docking_score>  (1) 
-3.7050000000000001

$$$$

     RDKit          3D

 23 23  0  0  0  0  0  0  0  0999 V2000
   18.7560   -3.3465   -5.5610 C   0  0  0  0  0  0  0  0  0  0  0  0
   18.1028   -2.8911   -4.3097 C   0  0  1  0  0  0  0  0  0  0  0  0
   18.5385   -1.5651   -3.7859 C   0  0  0  0  0  0  0  0  0  0  0  0
   18.3705   -1.5997   -2.2620 C   0  0  2  0  0  0  0  0  0  0  0  0
   19.6167   -2.0313   -1.7600 O   0  0  0  0  0  0  0  0  0  0  0  0
   17.3539   -2.6623   -1.8730 C   0  0  2  0  0  0  0  0  0  0  0  0
   18.0247   -3.8901   -1.9160 O   0  0  0  0  0  0  0  0  0  0  0  0
   16.1742   -2.6693   -2.8426 C   0  0  1  0  0  0  0  0  0  0  0  0
   15.6228   -1.3920   -2.8196 O   0  0  0  0  0  0  0  0  0  0  0  0
   16.6240   -3.0647   -4.2341 C   0  0  1  0  0  0  0  0  0  0  0  0
   15.8663   -2.3111   -5.1822 N   0  0  0  0  0  0  0  0  0  0  0  0
   14.5952   -2.8974   -5.5473 C   0  0  0  0  0  3  0  0  0  0  0  0
   14.6932   -4.3810   -5.4607 C   0  0  0  0  0  0  0  0  0  0  0  0
   14.7143   -5.1110   -6.7543 C   0  0  2  0  0  0  0  0  0  0  0  0
   13.4911   -5.6621   -7.1190 O   0  0  0  0  0  0  0  0  0  0  0  0
   15.8268   -6.1259   -6.7862 C   0  0  1  0  0  0  0  0  0  0  0  0
   16.9690   -5.4619   -7.2501 O   0  0  0  0  0  0  0  0  0  0  0  0
   16.0872   -6.6771   -5.3828 C   0  0  1  0  0  0  0  0  0  0  0  0
   14.8661   -7.0954   -4.8566 O   0  0  0  0  0  0  0  0  0  0  0  0
   17.0103   -7.8757   -5.5610 C   0  0  1  0  0  0  0  0  0  0  0  0
   17.2736   -8.0591   -6.9123 O   0  0  0  0  0  0  0  0  0  0  0  0
   18.3152   -7.6495   -4.8253 C   0  0  0  0  0  3  0  0  0  0  0  0
   18.2188   -6.4915   -4.0717 O   0  0  0  0  0  0  0  0  0  0  0  0
  2  1  1  6
  2  3  1  0
  3  4  1  0
  4  5  1  1
  4  6  1  0
  6  7  1  6
  6  8  1  0
  8  9  1  6
  8 10  1  0
 10 11  1  6
 11 12  1  0
 12 13  1  0
 13 14  1  0
 14 15  1  1
 14 16  1  0
 16 17  1  1
 16 18  1  0
 18 19  1  6
 18 20  1  0
 20 21  1  6
 20 22  1  0
 22 23  1  0
 10  2  1  0
M  RAD  2  12   2  22   2
M  END
>  <docking_score>  (2) 
-3.27

$$$$

     RDKit          3D

 23 23  0  0  0  0  0  0  0  0999 V2000
    5.4826    9.6345    2.1153 C   0  0  0  0  0  0  0  0  0  0  0  0
    4.7942    9.2727    3.3783 C   0  0  1  0  0  0  0  0  0  0  0  0
    5.6661    8.7896    4.4869 C   0  0  0  0  0  0  0  0  0  0  0  0
    4.8287    7.8286    5.3394 C   0  0  2  0  0  0  0  0  0  0  0  0
    5.0706    6.5468    4.8013 O   0  0  0  0  0  0  0  0  0  0  0  0
    3.3472    8.1106    5.1408 C   0  0  2  0  0  0  0  0  0  0  0  0
    2.9834    7.4993    3.9352 O   0  0  0  0  0  0  0  0  0  0  0  0
    3.0821    9.6130    5.0736 C   0  0  1  0  0  0  0  0  0  0  0  0
    3.5594   10.1623    6.2596 O   0  0  0  0  0  0  0  0  0  0  0  0
    3.7516   10.2235    3.8595 C   0  0  1  0  0  0  0  0  0  0  0  0
    4.2216   11.5255    4.2129 N   0  0  0  0  0  0  0  0  0  0  0  0
    3.3052   12.6039    3.9127 C   0  0  0  0  0  3  0  0  0  0  0  0
    3.9850   13.9083    4.1464 C   0  0  0  0  0  0  0  0  0  0  0  0
    5.3992   13.8368    4.5957 C   0  0  2  0  0  0  0  0  0  0  0  0
    5.5545   13.6143    5.9593 O   0  0  0  0  0  0  0  0  0  0  0  0
    6.1796   15.0353    4.1233 C   0  0  1  0  0  0  0  0  0  0  0  0
    6.7944   15.5903    5.2523 O   0  0  0  0  0  0  0  0  0  0  0  0
    7.2476   14.6126    3.1123 C   0  0  1  0  0  0  0  0  0  0  0  0
    8.4906   14.9688    3.6327 O   0  0  0  0  0  0  0  0  0  0  0  0
    7.1504   13.0965    2.9997 C   0  0  1  0  0  0  0  0  0  0  0  0
    7.0448   12.7385    1.6620 O   0  0  0  0  0  0  0  0  0  0  0  0
    8.3816   12.4443    3.5944 C   0  0  0  0  0  3  0  0  0  0  0  0
    8.0231   11.2402    4.1776 O   0  0  0  0  0  0  0  0  0  0  0  0
  2  1  1  6
  2  3  1  0
  3  4  1  0
  4  5  1  6
  4  6  1  0
  6  7  1  6
  6  8  1  0
  8  9  1  1
  8 10  1  0
 10 11  1  1
 11 12  1  0
 12 13  1  0
 13 14  1  0
 14 15  1  1
 14 16  1  0
 16 17  1  1
 16 18  1  0
 18 19  1  1
 18 20  1  0
 20 21  1  6
 20 22  1  0
 22 23  1  0
 10  2  1  0
M  RAD  2  12   2  22   2
M  END
>  <docking_score>  (3) 
-3.23

$$$$
