
     RDKit          3D

 18 17  0  0  0  0  0  0  0  0999 V2000
   15.5663   -0.6019   -5.7834 C   0  0  0  0  0  0  0  0  0  0  0  0
   15.7416   -2.0674   -6.1929 C   0  0  0  0  0  0  0  0  0  0  0  0
   15.2970   -2.2267   -7.6227 C   0  0  0  0  0  0  0  0  0  0  0  0
   14.9447   -2.9140   -5.2279 C   0  0  0  0  0  0  0  0  0  0  0  0
   17.2142   -2.4488   -6.0251 C   0  0  0  0  0  0  0  0  0  0  0  0
   17.7516   -1.5051   -4.9516 C   0  0  0  0  0  0  0  0  0  0  0  0
   18.5788   -2.2229   -3.9619 C   0  0  0  0  0  0  0  0  0  0  0  0
   19.5362   -2.8774   -4.3391 O   0  0  0  0  0  0  0  0  0  0  0  0
   18.2561   -2.1543   -2.5225 C   0  0  0  0  0  0  0  0  0  0  0  0
   19.2351   -1.2439   -1.8212 C   0  0  0  0  0  0  0  0  0  0  0  0
   16.8542   -1.6263   -2.2720 C   0  0  0  0  0  0  0  0  0  0  0  0
   18.3172   -3.5291   -1.8810 C   0  0  0  0  0  3  0  0  0  0  0  0
   17.1939   -4.3496   -2.5096 C   0  0  2  0  0  0  0  0  0  0  0  0
   16.1811   -4.5414   -1.5707 O   0  0  0  0  0  0  0  0  0  0  0  0
   17.7885   -5.6701   -2.9640 C   0  0  0  0  0  0  0  0  0  0  0  0
   17.3103   -5.8955   -4.3684 C   0  0  0  0  0  0  0  0  0  0  0  0
   15.9205   -6.4034   -4.5531 C   0  0  0  0  0  0  0  0  0  0  0  0
   18.0082   -5.6802   -5.3339 O   0  0  0  0  0  0  0  0  0  0  0  0
  1  2  1  0
  2  3  1  0
  2  4  1  0
  2  5  1  0
  5  6  1  0
  6  7  1  0
  7  8  2  0
  7  9  1  0
  9 10  1  0
  9 11  1  0
  9 12  1  0
 12 13  1  0
 13 14  1  1
 13 15  1  0
 15 16  1  0
 16 17  1  0
 16 18  2  0
M  RAD  1  12   2
M  END
>  <docking_score>  (1) 
-4.2439999999999998

$$$$

     RDKit          3D

 18 17  0  0  0  0  0  0  0  0999 V2000
   14.6034   -3.1709   -5.3735 C   0  0  0  0  0  0  0  0  0  0  0  0
   15.4722   -2.1555   -6.1220 C   0  0  0  0  0  0  0  0  0  0  0  0
   15.0280   -0.7672   -5.7440 C   0  0  0  0  0  0  0  0  0  0  0  0
   15.3397   -2.4370   -7.6005 C   0  0  0  0  0  0  0  0  0  0  0  0
   16.9360   -2.3911   -5.7424 C   0  0  0  0  0  0  0  0  0  0  0  0
   17.3536   -1.1435   -4.9672 C   0  0  0  0  0  0  0  0  0  0  0  0
   18.7817   -1.1869   -4.5964 C   0  0  0  0  0  0  0  0  0  0  0  0
   19.6318   -1.0293   -5.4564 O   0  0  0  0  0  0  0  0  0  0  0  0
   19.1870   -1.4191   -3.1956 C   0  0  0  0  0  0  0  0  0  0  0  0
   20.1286   -0.3274   -2.7473 C   0  0  0  0  0  0  0  0  0  0  0  0
   17.9994   -1.4391   -2.2490 C   0  0  0  0  0  0  0  0  0  0  0  0
   19.8809   -2.7607   -3.0409 C   0  0  0  0  0  3  0  0  0  0  0  0
   19.1199   -3.5183   -1.9560 C   0  0  2  0  0  0  0  0  0  0  0  0
   19.8314   -3.4490   -0.7589 O   0  0  0  0  0  0  0  0  0  0  0  0
   18.9582   -4.9528   -2.4247 C   0  0  0  0  0  0  0  0  0  0  0  0
   17.5913   -5.0533   -3.0355 C   0  0  0  0  0  0  0  0  0  0  0  0
   16.4313   -4.6036   -2.2135 C   0  0  0  0  0  0  0  0  0  0  0  0
   17.4100   -5.4806   -4.1536 O   0  0  0  0  0  0  0  0  0  0  0  0
  1  2  1  0
  2  3  1  0
  2  4  1  0
  2  5  1  0
  5  6  1  0
  6  7  1  0
  7  8  2  0
  7  9  1  0
  9 10  1  0
  9 11  1  0
  9 12  1  0
 12 13  1  0
 13 14  1  1
 13 15  1  0
 15 16  1  0
 16 17  1  0
 16 18  2  0
M  RAD  1  12   2
M  END
>  <docking_score>  (2) 
-3.7400000000000002

$$$$

     RDKit          3D

 18 17  0  0  0  0  0  0  0  0999 V2000
   15.9745   -1.8164   -3.9419 C   0  0  0  0  0  0  0  0  0  0  0  0
   15.2402   -1.8268   -5.2861 C   0  0  0  0  0  0  0  0  0  0  0  0
   15.0554   -0.4053   -5.7473 C   0  0  0  0  0  0  0  0  0  0  0  0
   13.9335   -2.5602   -5.0918 C   0  0  0  0  0  0  0  0  0  0  0  0
   16.0697   -2.6312   -6.2897 C   0  0  0  0  0  0  0  0  0  0  0  0
   15.2741   -3.9124   -6.5296 C   0  0  0  0  0  0  0  0  0  0  0  0
   16.1228   -5.1124   -6.3933 C   0  0  0  0  0  0  0  0  0  0  0  0
   16.9924   -5.3316   -7.2197 O   0  0  0  0  0  0  0  0  0  0  0  0
   15.9268   -6.0466   -5.2667 C   0  0  0  0  0  0  0  0  0  0  0  0
   14.4665   -6.4131   -5.1536 C   0  0  0  0  0  0  0  0  0  0  0  0
   16.7254   -7.3274   -5.4360 C   0  0  0  0  0  0  0  0  0  0  0  0
   16.3811   -5.4284   -3.9564 C   0  0  0  0  0  3  0  0  0  0  0  0
   17.8906   -5.6417   -3.8785 C   0  0  2  0  0  0  0  0  0  0  0  0
   18.2050   -6.2838   -2.6815 O   0  0  0  0  0  0  0  0  0  0  0  0
   18.5524   -4.2788   -3.9691 C   0  0  0  0  0  0  0  0  0  0  0  0
   19.6128   -4.3859   -5.0254 C   0  0  0  0  0  0  0  0  0  0  0  0
   19.6566   -3.3248   -6.0722 C   0  0  0  0  0  0  0  0  0  0  0  0
   20.4160   -5.2915   -5.0491 O   0  0  0  0  0  0  0  0  0  0  0  0
  1  2  1  0
  2  3  1  0
  2  4  1  0
  2  5  1  0
  5  6  1  0
  6  7  1  0
  7  8  2  0
  7  9  1  0
  9 10  1  0
  9 11  1  0
  9 12  1  0
 12 13  1  0
 13 14  1  1
 13 15  1  0
 15 16  1  0
 16 17  1  0
 16 18  2  0
M  RAD  1  12   2
M  END
>  <docking_score>  (3) 
-3.3879999999999999

$$$$
