
     RDKit          3D

 25 25  0  0  0  0  0  0  0  0999 V2000
   19.9652   -6.7129   -3.9293 C   0  0  0  0  0  0  0  0  0  0  0  0
   20.4135   -6.1045   -2.7341 O   0  0  0  0  0  0  0  0  0  0  0  0
   21.1865   -4.9624   -3.0764 C   0  0  0  0  0  3  0  0  0  0  0  0
   20.6532   -4.4043   -4.2501 O   0  0  0  0  0  0  0  0  0  0  0  0
   19.3290   -4.0783   -4.1059 C   0  0  2  0  0  0  0  0  0  0  0  0
   18.9437   -3.7434   -2.6759 C   0  0  0  0  0  0  0  0  0  0  0  0
   17.5765   -3.9174   -2.5561 O   0  0  0  0  0  0  0  0  0  0  0  0
   18.4449   -5.1391   -4.6665 C   0  0  1  0  0  0  0  0  0  0  0  0
   18.3013   -5.1385   -6.1460 C   0  0  0  0  0  3  0  0  0  0  0  0
   16.8659   -5.0837   -6.5578 C   0  0  0  0  0  0  0  0  0  0  0  0
   15.9371   -4.5442   -5.5030 C   0  0  2  0  0  0  0  0  0  0  0  0
   14.7188   -5.7965   -5.0118 S   0  0  0  0  0  0  0  0  0  0  0  0
   15.3384   -7.1938   -5.0477 O   0  0  0  0  0  0  0  0  0  0  0  0
   15.1803   -3.3632   -6.0101 C   0  0  1  0  0  0  0  0  0  0  0  0
   14.3028   -2.8210   -5.0986 O   0  0  0  0  0  0  0  0  0  0  0  0
   14.2569   -1.5094   -5.3490 O   0  0  0  0  0  0  0  0  0  0  0  0
   14.2447   -0.8833   -4.0986 C   0  0  0  0  0  3  0  0  0  0  0  0
   15.1826   -1.3970   -3.2316 O   0  0  0  0  0  0  0  0  0  0  0  0
   16.1839   -2.1634   -6.8768 S   0  0  0  0  0  0  0  0  0  0  0  0
   17.4487   -1.6582   -5.8140 O   0  0  0  0  0  0  0  0  0  0  0  0
   18.5896   -1.4724   -6.6210 C   0  0  0  0  0  3  0  0  0  0  0  0
   18.4294   -2.0393   -7.8778 O   0  0  0  0  0  0  0  0  0  0  0  0
   19.6528   -2.0743   -8.5428 C   0  0  0  0  0  3  0  0  0  0  0  0
   20.0769   -3.4063   -8.6460 O   0  0  0  0  0  0  0  0  0  0  0  0
   18.6482   -6.3672   -4.1381 O   0  0  0  0  0  0  0  0  0  0  0  0
  1  2  1  0
  2  3  1  0
  3  4  1  0
  4  5  1  0
  5  6  1  1
  6  7  1  0
  5  8  1  0
  8  9  1  6
  9 10  1  0
 11 10  1  6
 11 12  1  0
 12 13  2  0
 11 14  1  0
 14 15  1  1
 15 16  1  0
 16 17  1  0
 17 18  1  0
 14 19  1  0
 19 20  1  0
 20 21  1  0
 21 22  1  0
 22 23  1  0
 23 24  1  0
  8 25  1  0
 25  1  1  0
M  RAD  5   3   2   9   2  17   2  21   2  23   2
M  END
>  <docking_score>  (1) 
-2.7970000000000002

$$$$

     RDKit          3D

 25 25  0  0  0  0  0  0  0  0999 V2000
    9.3339   14.2727    2.9031 C   0  0  0  0  0  0  0  0  0  0  0  0
    9.4369   15.1540    4.0042 O   0  0  0  0  0  0  0  0  0  0  0  0
    8.3441   16.0608    3.9551 C   0  0  0  0  0  3  0  0  0  0  0  0
    7.2358   15.3872    3.4151 O   0  0  0  0  0  0  0  0  0  0  0  0
    6.9151   14.2673    4.1387 C   0  0  2  0  0  0  0  0  0  0  0  0
    7.3017   14.3662    5.6038 C   0  0  0  0  0  0  0  0  0  0  0  0
    6.1508   14.2071    6.3549 O   0  0  0  0  0  0  0  0  0  0  0  0
    7.4813   13.0378    3.5152 C   0  0  1  0  0  0  0  0  0  0  0  0
    6.7361   12.5129    2.3410 C   0  0  0  0  0  3  0  0  0  0  0  0
    5.2648   12.7327    2.4818 C   0  0  0  0  0  0  0  0  0  0  0  0
    4.4274   11.5048    2.2424 C   0  0  2  0  0  0  0  0  0  0  0  0
    2.6859   11.9486    1.9889 S   0  0  0  0  0  0  0  0  0  0  0  0
    2.4999   13.4643    2.0651 O   0  0  0  0  0  0  0  0  0  0  0  0
    4.4847   10.5818    3.4126 C   0  0  1  0  0  0  0  0  0  0  0  0
    5.5250    9.6813    3.3711 O   0  0  0  0  0  0  0  0  0  0  0  0
    5.0228    8.5426    2.8852 O   0  0  0  0  0  0  0  0  0  0  0  0
    3.6841    8.5141    3.2886 C   0  0  0  0  0  3  0  0  0  0  0  0
    3.1901    7.2359    3.4207 O   0  0  0  0  0  0  0  0  0  0  0  0
    4.2630   11.3856    4.9947 S   0  0  0  0  0  0  0  0  0  0  0  0
    3.1196   10.4650    5.9055 O   0  0  0  0  0  0  0  0  0  0  0  0
    3.8742    9.6073    6.7315 C   0  0  0  0  0  3  0  0  0  0  0  0
    3.2273    9.3472    7.9317 O   0  0  0  0  0  0  0  0  0  0  0  0
    3.8149    8.2522    8.5608 C   0  0  0  0  0  3  0  0  0  0  0  0
    3.6379    8.3739    9.9459 O   0  0  0  0  0  0  0  0  0  0  0  0
    8.8219   13.0711    3.3408 O   0  0  0  0  0  0  0  0  0  0  0  0
  1  2  1  0
  2  3  1  0
  3  4  1  0
  4  5  1  0
  5  6  1  1
  6  7  1  0
  5  8  1  0
  8  9  1  6
  9 10  1  0
 11 10  1  1
 11 12  1  0
 12 13  2  0
 11 14  1  0
 14 15  1  1
 15 16  1  0
 16 17  1  0
 17 18  1  0
 14 19  1  0
 19 20  1  0
 20 21  1  0
 21 22  1  0
 22 23  1  0
 23 24  1  0
  8 25  1  0
 25  1  1  0
M  RAD  5   3   2   9   2  17   2  21   2  23   2
M  END
>  <docking_score>  (2) 
-2.4870000000000001

$$$$

     RDKit          3D

 25 25  0  0  0  0  0  0  0  0999 V2000
   18.5256   -2.6246   -1.8773 C   0  0  0  0  0  0  0  0  0  0  0  0
   19.3306   -1.4688   -1.7516 O   0  0  0  0  0  0  0  0  0  0  0  0
   20.6197   -1.7629   -2.2716 C   0  0  0  0  0  3  0  0  0  0  0  0
   20.4706   -2.6702   -3.3337 O   0  0  0  0  0  0  0  0  0  0  0  0
   19.6439   -2.1810   -4.3124 C   0  0  2  0  0  0  0  0  0  0  0  0
   19.6419   -0.6649   -4.3964 C   0  0  0  0  0  0  0  0  0  0  0  0
   18.7179   -0.2975   -5.3582 O   0  0  0  0  0  0  0  0  0  0  0  0
   18.2593   -2.7133   -4.1692 C   0  0  1  0  0  0  0  0  0  0  0  0
   18.0510   -4.0999   -4.6629 C   0  0  0  0  0  3  0  0  0  0  0  0
   18.7587   -4.3331   -5.9581 C   0  0  0  0  0  0  0  0  0  0  0  0
   17.9005   -4.9438   -7.0338 C   0  0  2  0  0  0  0  0  0  0  0  0
   17.1986   -3.6603   -8.1081 S   0  0  0  0  0  0  0  0  0  0  0  0
   17.6808   -2.2748   -7.6774 O   0  0  0  0  0  0  0  0  0  0  0  0
   16.7595   -5.7007   -6.4424 C   0  0  1  0  0  0  0  0  0  0  0  0
   17.0019   -6.1922   -5.1797 O   0  0  0  0  0  0  0  0  0  0  0  0
   16.3403   -7.3493   -5.0886 O   0  0  0  0  0  0  0  0  0  0  0  0
   17.1361   -8.2954   -5.7423 C   0  0  0  0  0  3  0  0  0  0  0  0
   17.0148   -9.5591   -5.2097 O   0  0  0  0  0  0  0  0  0  0  0  0
   15.1700   -4.9042   -6.6350 S   0  0  0  0  0  0  0  0  0  0  0  0
   14.8656   -3.9698   -5.2143 O   0  0  0  0  0  0  0  0  0  0  0  0
   14.7854   -2.6272   -5.6365 C   0  0  0  0  0  3  0  0  0  0  0  0
   14.6021   -1.7610   -4.5675 O   0  0  0  0  0  0  0  0  0  0  0  0
   13.7169   -0.7464   -4.9242 C   0  0  0  0  0  3  0  0  0  0  0  0
   13.7506    0.2531   -3.9421 O   0  0  0  0  0  0  0  0  0  0  0  0
   17.6939   -2.4719   -2.9647 O   0  0  0  0  0  0  0  0  0  0  0  0
  1  2  1  0
  2  3  1  0
  3  4  1  0
  4  5  1  0
  5  6  1  1
  6  7  1  0
  5  8  1  0
  8  9  1  1
  9 10  1  0
 11 10  1  1
 11 12  1  0
 12 13  2  0
 11 14  1  0
 14 15  1  1
 15 16  1  0
 16 17  1  0
 17 18  1  0
 14 19  1  0
 19 20  1  0
 20 21  1  0
 21 22  1  0
 22 23  1  0
 23 24  1  0
  8 25  1  0
 25  1  1  0
M  RAD  5   3   2   9   2  17   2  21   2  23   2
M  END
>  <docking_score>  (3) 
-2.3969999999999998

$$$$
