
     RDKit          3D

 11 10  0  0  0  0  0  0  0  0999 V2000
    6.7829    3.2995   -4.0349 O   0  0  0  0  0  0  0  0  0  0  0  0
    6.8849    2.2220   -4.8904 C   0  0  0  0  0  0  0  0  0  0  0  0
    5.9571    2.4218   -6.0549 C   0  0  0  0  0  3  0  0  0  0  0  0
    6.1495    1.3942   -7.0413 N   0  0  0  0  0  0  0  0  0  0  0  0
    6.3844    0.1381   -6.3661 C   0  0  0  0  0  3  0  0  0  0  0  0
    6.5144   -0.9469   -7.4118 C   0  0  2  0  0  0  0  0  0  0  0  0
    6.5333   -0.3918   -8.6961 O   0  0  0  0  0  0  0  0  0  0  0  0
    5.3388   -1.8696   -7.3018 C   0  0  1  0  0  0  0  0  0  0  0  0
    5.1472   -2.5551   -8.4923 O   0  0  0  0  0  0  0  0  0  0  0  0
    5.5805   -2.8263   -6.1566 C   0  0  0  0  0  3  0  0  0  0  0  0
    5.1327   -4.1018   -6.5097 O   0  0  0  0  0  0  0  0  0  0  0  0
  1  2  1  0
  2  3  1  0
  3  4  1  0
  4  5  1  0
  5  6  1  0
  6  7  1  6
  6  8  1  0
  8  9  1  6
  8 10  1  0
 10 11  1  0
M  RAD  3   3   2   5   2  10   2
M  END
>  <docking_score>  (1) 
-3.4910000000000001

$$$$

     RDKit          3D

 11 10  0  0  0  0  0  0  0  0999 V2000
   15.7674   -1.1655   -1.6461 O   0  0  0  0  0  0  0  0  0  0  0  0
   16.5662   -1.9402   -2.4616 C   0  0  0  0  0  0  0  0  0  0  0  0
   15.8386   -2.2257   -3.7445 C   0  0  0  0  0  3  0  0  0  0  0  0
   15.6710   -3.6410   -3.9307 N   0  0  0  0  0  0  0  0  0  0  0  0
   14.8344   -3.8629   -5.0882 C   0  0  0  0  0  3  0  0  0  0  0  0
   15.1664   -5.2228   -5.6613 C   0  0  2  0  0  0  0  0  0  0  0  0
   14.0705   -5.7429   -6.3588 O   0  0  0  0  0  0  0  0  0  0  0  0
   15.5085   -6.1524   -4.5369 C   0  0  1  0  0  0  0  0  0  0  0  0
   14.5294   -7.1247   -4.3964 O   0  0  0  0  0  0  0  0  0  0  0  0
   16.8569   -6.7755   -4.8180 C   0  0  0  0  0  3  0  0  0  0  0  0
   16.7157   -7.7865   -5.7719 O   0  0  0  0  0  0  0  0  0  0  0  0
  1  2  1  0
  2  3  1  0
  3  4  1  0
  4  5  1  0
  5  6  1  0
  6  7  1  1
  6  8  1  0
  8  9  1  6
  8 10  1  0
 10 11  1  0
M  RAD  3   3   2   5   2  10   2
M  END
>  <docking_score>  (2) 
-2.9089999999999998

$$$$

     RDKit          3D

 11 10  0  0  0  0  0  0  0  0999 V2000
   14.3939   -7.2189   -4.3199 O   0  0  0  0  0  0  0  0  0  0  0  0
   15.3900   -6.6360   -5.0758 C   0  0  0  0  0  0  0  0  0  0  0  0
   15.1993   -5.1460   -5.0859 C   0  0  0  0  0  3  0  0  0  0  0  0
   16.1456   -4.5056   -4.2139 N   0  0  0  0  0  0  0  0  0  0  0  0
   15.7069   -3.1513   -3.9643 C   0  0  0  0  0  3  0  0  0  0  0  0
   16.4508   -2.2294   -4.9048 C   0  0  2  0  0  0  0  0  0  0  0  0
   17.5529   -1.6558   -4.2611 O   0  0  0  0  0  0  0  0  0  0  0  0
   15.5254   -1.1360   -5.3448 C   0  0  1  0  0  0  0  0  0  0  0  0
   15.0229   -1.4053   -6.6092 O   0  0  0  0  0  0  0  0  0  0  0  0
   14.4101   -1.0097   -4.3322 C   0  0  0  0  0  3  0  0  0  0  0  0
   13.8347    0.2600   -4.4254 O   0  0  0  0  0  0  0  0  0  0  0  0
  1  2  1  0
  2  3  1  0
  3  4  1  0
  4  5  1  0
  5  6  1  0
  6  7  1  1
  6  8  1  0
  8  9  1  6
  8 10  1  0
 10 11  1  0
M  RAD  3   3   2   5   2  10   2
M  END
>  <docking_score>  (3) 
-2.899

$$$$
