
     RDKit          3D

 29 32  0  0  0  0  0  0  0  0999 V2000
   17.9330   -3.6094   -6.1436 C   0  0  0  0  0  0  0  0  0  0  0  0
   19.3609   -3.7137   -6.0335 C   0  0  0  0  0  0  0  0  0  0  0  0
   19.9382   -2.2878   -6.0614 C   0  0  0  0  0  0  0  0  0  0  0  0
   18.8691   -1.3538   -5.4809 C   0  0  0  0  0  0  0  0  0  0  0  0
   17.6512   -1.2574   -6.3164 C   0  0  0  0  0  0  0  0  0  0  0  0
   16.3659   -1.2527   -5.6198 C   0  0  1  0  0  0  0  0  0  0  0  0
   15.1664   -1.6551   -6.3672 C   0  0  0  0  0  0  0  0  0  0  0  0
   15.3089   -2.3294   -7.6572 C   0  0  0  0  0  0  0  0  0  0  0  0
   15.3421   -3.5970   -7.9541 C   0  0  0  0  0  0  0  0  0  0  0  0
   15.2543   -4.7930   -7.1598 C   0  0  1  0  0  0  0  0  0  0  0  0
   14.4116   -5.7128   -7.8261 O   0  0  0  0  0  0  0  0  0  0  0  0
   16.5568   -5.5765   -6.9103 C   0  0  0  0  0  0  0  0  0  0  0  0
   16.7417   -5.5762   -5.4575 C   0  0  2  0  0  0  0  0  0  0  0  0
   16.9797   -4.0640   -5.1789 C   0  0  2  0  0  0  0  0  0  0  0  0
   15.6099   -3.5795   -5.0900 C   0  0  0  0  0  0  0  0  0  0  0  0
   15.3127   -2.6307   -3.9396 C   0  0  0  0  0  0  0  0  0  0  0  0
   16.3953   -1.5552   -4.1489 C   0  0  1  0  0  0  0  0  0  0  0  0
   17.6417   -2.1111   -3.5916 C   0  0  0  0  0  0  0  0  0  0  0  0
   17.4637   -3.2268   -2.5498 C   0  0  0  0  0  0  0  0  0  0  0  0
   18.3454   -4.4285   -2.9139 C   0  0  1  0  0  0  0  0  0  0  0  0
   19.3897   -4.5748   -2.0040 O   0  0  0  0  0  0  0  0  0  0  0  0
   17.6579   -5.6652   -3.2814 C   0  0  0  0  0  0  0  0  0  0  0  0
   17.8739   -6.1426   -4.7406 C   0  0  1  0  0  0  0  0  0  0  0  0
   17.9699   -7.6501   -4.7683 C   0  0  1  0  0  0  0  0  0  0  0  0
   16.6322   -8.2421   -5.1538 C   0  0  0  0  0  0  0  0  0  0  0  0
   18.5020   -8.1001   -6.1104 C   0  0  0  0  0  0  0  0  0  0  0  0
   17.2834   -9.0089   -6.3008 C   0  0  1  0  0  0  0  0  0  0  0  0
   17.5602  -10.3148   -5.9085 O   0  0  0  0  0  0  0  0  0  0  0  0
   16.9260  -11.1597   -6.8148 C   0  0  0  0  0  0  0  0  0  0  0  0
  1  2  1  0
  2  3  1  0
  3  4  1  0
  4  5  1  0
  6  5  1  6
  6  7  1  0
  7  8  1  0
  8  9  2  3
  9 10  1  0
 10 11  1  6
 10 12  1  0
 13 12  1  6
 13 14  1  0
 14 15  1  0
 15 16  1  0
 16 17  1  0
 17 18  1  6
 18 19  1  0
 19 20  1  0
 20 21  1  1
 20 22  1  0
 23 22  1  1
 23 24  1  0
 24 25  1  6
 24 26  1  0
 26 27  1  0
 27 28  1  1
 28 29  1  0
 14  1  1  6
 17  6  1  0
 23 13  1  0
 27 25  1  0
M  END
>  <docking_score>  (1) 
-6.016

$$$$

     RDKit          3D

 29 32  0  0  0  0  0  0  0  0999 V2000
   17.3774   -4.0571   -4.4683 C   0  0  0  0  0  0  0  0  0  0  0  0
   18.3241   -4.5785   -3.5230 C   0  0  0  0  0  0  0  0  0  0  0  0
   17.8584   -5.9895   -3.1234 C   0  0  0  0  0  0  0  0  0  0  0  0
   17.0824   -6.5655   -4.3143 C   0  0  0  0  0  0  0  0  0  0  0  0
   15.8212   -5.8464   -4.6021 C   0  0  0  0  0  0  0  0  0  0  0  0
   15.5003   -5.6035   -6.0076 C   0  0  1  0  0  0  0  0  0  0  0  0
   14.5765   -4.5079   -6.3325 C   0  0  0  0  0  0  0  0  0  0  0  0
   14.2460   -3.5125   -5.3132 C   0  0  0  0  0  0  0  0  0  0  0  0
   14.7799   -2.3535   -5.0530 C   0  0  0  0  0  0  0  0  0  0  0  0
   15.8664   -1.6191   -5.6441 C   0  0  1  0  0  0  0  0  0  0  0  0
   15.4808   -0.2633   -5.7591 O   0  0  0  0  0  0  0  0  0  0  0  0
   17.1975   -1.5757   -4.8704 C   0  0  0  0  0  0  0  0  0  0  0  0
   18.1848   -2.1991   -5.7545 C   0  0  2  0  0  0  0  0  0  0  0  0
   17.6621   -3.6634   -5.8137 C   0  0  2  0  0  0  0  0  0  0  0  0
   16.6612   -3.5582   -6.8654 C   0  0  0  0  0  0  0  0  0  0  0  0
   16.6674   -4.6688   -7.9039 C   0  0  0  0  0  0  0  0  0  0  0  0
   16.5749   -5.9188   -7.0086 C   0  0  1  0  0  0  0  0  0  0  0  0
   17.9356   -6.1598   -6.4954 C   0  0  0  0  0  0  0  0  0  0  0  0
   19.0761   -5.5505   -7.3259 C   0  0  0  0  0  0  0  0  0  0  0  0
   20.0221   -4.7580   -6.4141 C   0  0  1  0  0  0  0  0  0  0  0  0
   21.2557   -5.3948   -6.3012 O   0  0  0  0  0  0  0  0  0  0  0  0
   20.0809   -3.3119   -6.6201 C   0  0  0  0  0  0  0  0  0  0  0  0
   19.5823   -2.4464   -5.4343 C   0  0  1  0  0  0  0  0  0  0  0  0
   20.4470   -1.2136   -5.3121 C   0  0  1  0  0  0  0  0  0  0  0  0
   20.0831   -0.2225   -6.3956 C   0  0  0  0  0  0  0  0  0  0  0  0
   19.8375   -0.2640   -4.3053 C   0  0  0  0  0  0  0  0  0  0  0  0
   19.8390    0.8589   -5.3476 C   0  0  1  0  0  0  0  0  0  0  0  0
   20.9651    1.6659   -5.2198 O   0  0  0  0  0  0  0  0  0  0  0  0
   20.5734    2.9685   -5.5150 C   0  0  0  0  0  0  0  0  0  0  0  0
  1  2  1  0
  2  3  1  0
  3  4  1  0
  4  5  1  0
  6  5  1  1
  6  7  1  0
  7  8  1  0
  8  9  2  3
  9 10  1  0
 10 11  1  1
 10 12  1  0
 13 12  1  1
 13 14  1  0
 14 15  1  0
 15 16  1  0
 16 17  1  0
 17 18  1  1
 18 19  1  0
 19 20  1  0
 20 21  1  6
 20 22  1  0
 23 22  1  6
 23 24  1  0
 24 25  1  6
 24 26  1  0
 26 27  1  0
 27 28  1  1
 28 29  1  0
 14  1  1  1
 17  6  1  0
 23 13  1  0
 27 25  1  0
M  END
>  <docking_score>  (2) 
-5.4699999999999998

$$$$

     RDKit          3D

 29 32  0  0  0  0  0  0  0  0999 V2000
   18.3531   -6.5536   -5.2151 C   0  0  0  0  0  0  0  0  0  0  0  0
   18.3568   -6.8782   -3.8163 C   0  0  0  0  0  0  0  0  0  0  0  0
   19.5257   -7.8462   -3.5632 C   0  0  0  0  0  0  0  0  0  0  0  0
   20.6036   -7.5398   -4.6103 C   0  0  0  0  0  0  0  0  0  0  0  0
   20.1857   -7.8467   -5.9966 C   0  0  0  0  0  0  0  0  0  0  0  0
   20.5606   -6.8850   -7.0321 C   0  0  1  0  0  0  0  0  0  0  0  0
   19.7824   -6.8639   -8.2784 C   0  0  0  0  0  0  0  0  0  0  0  0
   18.4980   -7.5604   -8.3425 C   0  0  0  0  0  0  0  0  0  0  0  0
   17.2867   -7.1297   -8.1342 C   0  0  0  0  0  0  0  0  0  0  0  0
   16.7513   -5.8446   -7.7725 C   0  0  1  0  0  0  0  0  0  0  0  0
   15.6001   -5.6015   -8.5572 O   0  0  0  0  0  0  0  0  0  0  0  0
   16.2727   -5.6583   -6.3204 C   0  0  0  0  0  0  0  0  0  0  0  0
   17.1009   -4.5832   -5.7699 C   0  0  2  0  0  0  0  0  0  0  0  0
   18.5083   -5.2467   -5.7755 C   0  0  2  0  0  0  0  0  0  0  0  0
   18.9316   -4.9876   -7.1439 C   0  0  0  0  0  0  0  0  0  0  0  0
   20.3599   -4.4955   -7.3171 C   0  0  0  0  0  0  0  0  0  0  0  0
   21.1469   -5.5841   -6.5633 C   0  0  1  0  0  0  0  0  0  0  0  0
   21.0292   -5.2599   -5.1301 C   0  0  0  0  0  0  0  0  0  0  0  0
   20.6988   -3.7945   -4.8057 C   0  0  0  0  0  0  0  0  0  0  0  0
   19.5196   -3.7283   -3.8262 C   0  0  1  0  0  0  0  0  0  0  0  0
   19.9354   -3.2802   -2.5747 O   0  0  0  0  0  0  0  0  0  0  0  0
   18.2801   -3.1339   -4.3235 C   0  0  0  0  0  0  0  0  0  0  0  0
   17.0631   -4.0914   -4.4012 C   0  0  1  0  0  0  0  0  0  0  0  0
   15.8083   -3.3433   -4.0160 C   0  0  1  0  0  0  0  0  0  0  0  0
   16.1727   -1.9905   -3.4451 C   0  0  0  0  0  0  0  0  0  0  0  0
   15.2514   -2.6290   -5.2270 C   0  0  0  0  0  0  0  0  0  0  0  0
   15.2749   -1.2991   -4.4667 C   0  0  1  0  0  0  0  0  0  0  0  0
   14.0348   -1.0173   -3.9024 O   0  0  0  0  0  0  0  0  0  0  0  0
   13.6651    0.2530   -4.3349 C   0  0  0  0  0  0  0  0  0  0  0  0
  1  2  1  0
  2  3  1  0
  3  4  1  0
  4  5  1  0
  6  5  1  1
  6  7  1  0
  7  8  1  0
  8  9  2  3
  9 10  1  0
 10 11  1  6
 10 12  1  0
 13 12  1  1
 13 14  1  0
 14 15  1  0
 15 16  1  0
 16 17  1  0
 17 18  1  1
 18 19  1  0
 19 20  1  0
 20 21  1  1
 20 22  1  0
 23 22  1  6
 23 24  1  0
 24 25  1  1
 24 26  1  0
 26 27  1  0
 27 28  1  1
 28 29  1  0
 14  1  1  6
 17  6  1  0
 23 13  1  0
 27 25  1  0
M  END
>  <docking_score>  (3) 
-5.3609999999999998

$$$$
