
     RDKit          3D

 24 26  0  0  0  0  0  0  0  0999 V2000
   18.7256   -5.7259   -2.8769 C   0  0  0  0  0  0  0  0  0  0  0  0
   19.2836   -4.3725   -3.1487 C   0  0  1  0  0  0  0  0  0  0  0  0
   18.4459   -3.5193   -4.0369 C   0  0  2  0  0  0  0  0  0  0  0  0
   19.1752   -2.2055   -4.2640 C   0  0  2  0  0  0  0  0  0  0  0  0
   20.3764   -2.3702   -4.9143 O   0  0  0  0  0  0  0  0  0  0  0  0
   19.3745   -1.5282   -2.9101 C   0  0  2  0  0  0  0  0  0  0  0  0
   19.8104   -0.2338   -3.0214 O   0  0  0  0  0  0  0  0  0  0  0  0
   20.3126   -2.4203   -2.1260 C   0  0  1  0  0  0  0  0  0  0  0  0
   20.8517   -1.8202   -1.0212 O   0  0  0  0  0  0  0  0  0  0  0  0
   19.5291   -3.6853   -1.8007 C   0  0  1  0  0  0  0  0  0  0  0  0
   18.2407   -3.4038   -1.2381 N   0  0  0  0  0  0  0  0  0  0  0  0
   17.4051   -2.5743   -2.0504 C   0  0  0  0  0  3  0  0  0  0  0  0
   17.1043   -3.1475   -3.4023 C   0  0  1  0  0  0  0  0  0  0  0  0
   16.5125   -2.0689   -4.2896 C   0  0  0  0  0  3  0  0  0  0  0  0
   15.5439   -1.3221   -3.6622 O   0  0  0  0  0  0  0  0  0  0  0  0
   14.4120   -1.3909   -4.3496 O   0  0  0  0  0  0  0  0  0  0  0  0
   14.5306   -2.1873   -5.4795 C   0  0  0  0  0  3  0  0  0  0  0  0
   13.8655   -3.4105   -5.3209 O   0  0  0  0  0  0  0  0  0  0  0  0
   14.6326   -4.3946   -5.9383 C   0  0  0  0  0  0  0  0  0  0  0  0
   14.9267   -5.3891   -5.0230 O   0  0  0  0  0  0  0  0  0  0  0  0
   16.2383   -5.2148   -4.5380 C   0  0  1  0  0  0  0  0  0  0  0  0
   17.0982   -4.7789   -5.5280 O   0  0  0  0  0  0  0  0  0  0  0  0
   16.1544   -4.2972   -3.3615 C   0  0  1  0  0  0  0  0  0  0  0  0
   16.1618   -4.9838   -2.1471 O   0  0  0  0  0  0  0  0  0  0  0  0
  2  1  1  1
  2  3  1  0
  3  4  1  1
  4  5  1  1
  4  6  1  0
  6  7  1  6
  6  8  1  0
  8  9  1  1
  8 10  1  0
 10 11  1  6
 11 12  1  0
 13 12  1  1
 13 14  1  0
 14 15  1  0
 15 16  1  0
 16 17  1  0
 17 18  1  0
 18 19  1  0
 19 20  1  0
 20 21  1  0
 21 22  1  6
 21 23  1  0
 23 24  1  1
 10  2  1  0
 13  3  1  0
 23 13  1  0
M  RAD  3  12   2  14   2  17   2
M  END
>  <docking_score>  (1) 
-6.1630000000000003

$$$$

     RDKit          3D

 24 26  0  0  0  0  0  0  0  0999 V2000
   16.9026   -4.2592   -2.0518 C   0  0  0  0  0  0  0  0  0  0  0  0
   16.1252   -3.5012   -3.0707 C   0  0  1  0  0  0  0  0  0  0  0  0
   16.7497   -2.2212   -3.5066 C   0  0  2  0  0  0  0  0  0  0  0  0
   15.8132   -1.5444   -4.4936 C   0  0  2  0  0  0  0  0  0  0  0  0
   14.6031   -1.2074   -3.9324 O   0  0  0  0  0  0  0  0  0  0  0  0
   15.6216   -2.4761   -5.6881 C   0  0  2  0  0  0  0  0  0  0  0  0
   14.9863   -1.8695   -6.7399 O   0  0  0  0  0  0  0  0  0  0  0  0
   14.8957   -3.6948   -5.1605 C   0  0  1  0  0  0  0  0  0  0  0  0
   14.3614   -4.4869   -6.1394 O   0  0  0  0  0  0  0  0  0  0  0  0
   15.8861   -4.4298   -4.2666 C   0  0  1  0  0  0  0  0  0  0  0  0
   17.1573   -4.6254   -4.9003 N   0  0  0  0  0  0  0  0  0  0  0  0
   17.7895   -3.4235   -5.3494 C   0  0  0  0  0  3  0  0  0  0  0  0
   18.0654   -2.4336   -4.2582 C   0  0  1  0  0  0  0  0  0  0  0  0
   18.4134   -1.0897   -4.8695 C   0  0  0  0  0  3  0  0  0  0  0  0
   19.3039   -1.1830   -5.9124 O   0  0  0  0  0  0  0  0  0  0  0  0
   20.3747   -0.4452   -5.6526 O   0  0  0  0  0  0  0  0  0  0  0  0
   20.2891    0.1910   -4.4227 C   0  0  0  0  0  3  0  0  0  0  0  0
   21.1430   -0.3942   -3.4783 O   0  0  0  0  0  0  0  0  0  0  0  0
   20.4880   -0.3858   -2.2499 C   0  0  0  0  0  0  0  0  0  0  0  0
   20.4226   -1.6760   -1.7556 O   0  0  0  0  0  0  0  0  0  0  0  0
   19.1426   -2.2131   -1.9989 C   0  0  1  0  0  0  0  0  0  0  0  0
   18.1502   -1.2632   -1.8492 O   0  0  0  0  0  0  0  0  0  0  0  0
   19.1793   -2.8423   -3.3540 C   0  0  1  0  0  0  0  0  0  0  0  0
   19.3734   -4.2226   -3.2968 O   0  0  0  0  0  0  0  0  0  0  0  0
  2  1  1  1
  2  3  1  0
  3  4  1  6
  4  5  1  1
  4  6  1  0
  6  7  1  6
  6  8  1  0
  8  9  1  6
  8 10  1  0
 10 11  1  6
 11 12  1  0
 13 12  1  6
 13 14  1  0
 14 15  1  0
 15 16  1  0
 16 17  1  0
 17 18  1  0
 18 19  1  0
 19 20  1  0
 20 21  1  0
 21 22  1  6
 21 23  1  0
 23 24  1  1
 10  2  1  0
 13  3  1  0
 23 13  1  0
M  RAD  3  12   2  14   2  17   2
M  END
>  <docking_score>  (2) 
-6.0229999999999997

$$$$

     RDKit          3D

 24 26  0  0  0  0  0  0  0  0999 V2000
   18.0278   -5.7856   -6.9252 C   0  0  0  0  0  0  0  0  0  0  0  0
   16.6026   -5.9460   -6.5249 C   0  0  1  0  0  0  0  0  0  0  0  0
   16.2711   -5.4169   -5.1726 C   0  0  2  0  0  0  0  0  0  0  0  0
   14.8066   -5.7087   -4.8911 C   0  0  2  0  0  0  0  0  0  0  0  0
   14.5311   -7.0560   -4.8523 O   0  0  0  0  0  0  0  0  0  0  0  0
   13.9656   -5.0089   -5.9563 C   0  0  2  0  0  0  0  0  0  0  0  0
   12.6268   -5.0110   -5.6638 O   0  0  0  0  0  0  0  0  0  0  0  0
   14.3020   -5.6824   -7.2693 C   0  0  1  0  0  0  0  0  0  0  0  0
   13.4180   -5.4048   -8.2755 O   0  0  0  0  0  0  0  0  0  0  0  0
   15.7343   -5.2838   -7.6007 C   0  0  1  0  0  0  0  0  0  0  0  0
   15.9493   -3.8702   -7.4948 N   0  0  0  0  0  0  0  0  0  0  0  0
   15.6303   -3.3140   -6.2162 C   0  0  0  0  0  3  0  0  0  0  0  0
   16.4186   -3.8967   -5.0824 C   0  0  1  0  0  0  0  0  0  0  0  0
   15.7819   -3.4975   -3.7647 C   0  0  0  0  0  3  0  0  0  0  0  0
   15.4373   -2.1680   -3.7103 O   0  0  0  0  0  0  0  0  0  0  0  0
   16.0398   -1.5925   -2.6786 O   0  0  0  0  0  0  0  0  0  0  0  0
   16.8334   -2.4826   -1.9697 C   0  0  0  0  0  3  0  0  0  0  0  0
   18.1970   -2.2478   -2.1913 O   0  0  0  0  0  0  0  0  0  0  0  0
   18.8383   -3.4824   -2.2417 C   0  0  0  0  0  0  0  0  0  0  0  0
   19.5184   -3.5980   -3.4405 O   0  0  0  0  0  0  0  0  0  0  0  0
   18.7684   -4.3844   -4.3377 C   0  0  1  0  0  0  0  0  0  0  0  0
   18.1267   -5.4258   -3.6950 O   0  0  0  0  0  0  0  0  0  0  0  0
   17.8457   -3.4620   -5.0665 C   0  0  1  0  0  0  0  0  0  0  0  0
   18.3330   -3.1022   -6.3232 O   0  0  0  0  0  0  0  0  0  0  0  0
  2  1  1  6
  2  3  1  0
  3  4  1  6
  4  5  1  6
  4  6  1  0
  6  7  1  1
  6  8  1  0
  8  9  1  6
  8 10  1  0
 10 11  1  1
 11 12  1  0
 13 12  1  6
 13 14  1  0
 14 15  1  0
 15 16  1  0
 16 17  1  0
 17 18  1  0
 18 19  1  0
 19 20  1  0
 20 21  1  0
 21 22  1  1
 21 23  1  0
 23 24  1  6
 10  2  1  0
 13  3  1  0
 23 13  1  0
M  RAD  3  12   2  14   2  17   2
M  END
>  <docking_score>  (3) 
-5.9980000000000002

$$$$
