
     RDKit          3D

  5  4  0  0  0  0  0  0  0  0999 V2000
    6.9816    2.3436   29.0023 C   0  0  0  0  0  0  0  0  0  0  0  0
    7.2266    2.3273   27.6872 C   0  0  0  0  0  0  0  0  0  0  0  0
    6.5510    1.2716   26.9453 C   0  0  0  0  0  0  0  0  0  0  0  0
    5.5083    1.6420   26.1888 C   0  0  0  0  0  0  0  0  0  0  0  0
    4.8468    0.5135   25.4440 C   0  0  0  0  0  0  0  0  0  0  0  0
  1  2  2  0
  2  3  1  0
  3  4  2  3
  4  5  1  0
M  END
>  <docking_score>  (1) 
-3.2090000000000001

$$$$

     RDKit          3D

  5  4  0  0  0  0  0  0  0  0999 V2000
    5.6557   -0.4607   25.6632 C   0  0  0  0  0  0  0  0  0  0  0  0
    5.2946    0.8050   25.4240 C   0  0  0  0  0  0  0  0  0  0  0  0
    5.6510    1.7574   26.4668 C   0  0  0  0  0  0  0  0  0  0  0  0
    6.6851    1.4276   27.2534 C   0  0  0  0  0  0  0  0  0  0  0  0
    7.0112    2.4454   28.3134 C   0  0  0  0  0  0  0  0  0  0  0  0
  1  2  2  0
  2  3  1  0
  3  4  2  3
  4  5  1  0
M  END
>  <docking_score>  (2) 
-3.2050000000000001

$$$$

     RDKit          3D

  5  4  0  0  0  0  0  0  0  0999 V2000
    4.5209    1.0012   24.9626 C   0  0  0  0  0  0  0  0  0  0  0  0
    5.7662    1.2199   25.3999 C   0  0  0  0  0  0  0  0  0  0  0  0
    5.8739    1.5715   26.8092 C   0  0  0  0  0  0  0  0  0  0  0  0
    7.0469    2.0789   27.2137 C   0  0  0  0  0  0  0  0  0  0  0  0
    7.1046    2.4249   28.6775 C   0  0  0  0  0  0  0  0  0  0  0  0
  1  2  2  0
  2  3  1  0
  3  4  2  3
  4  5  1  0
M  END
>  <docking_score>  (3) 
-3.1419999999999999

$$$$
