
     RDKit          3D

 24 24  0  0  0  0  0  0  0  0999 V2000
   17.8029   -5.9304   -2.9670 C   0  0  0  0  0  0  0  0  0  0  0  0
   18.3407   -6.4122   -4.3098 C   0  0  1  0  0  0  0  0  0  0  0  0
   19.1858   -7.6586   -4.1392 C   0  0  0  0  0  0  0  0  0  0  0  0
   19.7625   -7.9393   -5.5326 C   0  0  2  0  0  0  0  0  0  0  0  0
   20.1421   -6.7005   -6.0441 O   0  0  0  0  0  0  0  0  0  0  0  0
   18.6331   -8.4857   -6.3608 C   0  0  2  0  0  0  0  0  0  0  0  0
   18.8987   -8.2625   -7.7206 O   0  0  0  0  0  0  0  0  0  0  0  0
   17.2876   -7.9923   -5.9565 C   0  0  1  0  0  0  0  0  0  0  0  0
   16.5577   -8.9593   -5.2920 O   0  0  0  0  0  0  0  0  0  0  0  0
   17.2465   -6.6886   -5.2734 C   0  0  1  0  0  0  0  0  0  0  0  0
   15.9689   -6.5767   -4.5559 N   0  0  0  0  0  0  0  0  0  0  0  0
   15.0512   -5.7628   -5.3322 C   0  0  0  0  0  3  0  0  0  0  0  0
   15.8074   -4.6986   -6.0690 C   0  0  0  0  0  0  0  0  0  0  0  0
   14.8863   -3.7216   -6.7679 C   0  0  0  0  0  3  0  0  0  0  0  0
   14.8558   -4.0465   -8.1234 O   0  0  0  0  0  0  0  0  0  0  0  0
   15.3796   -2.3030   -6.5705 C   0  0  1  0  0  0  0  0  0  0  0  0
   14.8058   -1.6739   -5.4905 O   0  0  0  0  0  0  0  0  0  0  0  0
   16.8820   -2.3065   -6.4288 C   0  0  1  0  0  0  0  0  0  0  0  0
   17.5230   -1.9504   -7.5989 O   0  0  0  0  0  0  0  0  0  0  0  0
   17.3065   -1.3946   -5.3086 C   0  0  2  0  0  0  0  0  0  0  0  0
   18.2011   -0.4226   -5.7558 O   0  0  0  0  0  0  0  0  0  0  0  0
   17.9767   -2.2455   -4.2382 C   0  0  0  0  0  0  0  0  0  0  0  0
   18.8671   -3.1163   -4.8608 O   0  0  0  0  0  0  0  0  0  0  0  0
   18.6667   -1.4301   -3.3153 O   0  0  0  0  0  0  0  0  0  0  0  0
  2  1  1  1
  2  3  1  0
  3  4  1  0
  4  5  1  6
  4  6  1  0
  6  7  1  6
  6  8  1  0
  8  9  1  1
  8 10  1  0
 10 11  1  1
 11 12  1  0
 12 13  1  0
 13 14  1  0
 14 15  1  0
 14 16  1  0
 16 17  1  1
 16 18  1  0
 18 19  1  6
 18 20  1  0
 20 21  1  6
 20 22  1  0
 22 23  1  0
 22 24  1  0
 10  2  1  0
M  RAD  2  12   2  14   2
M  END
>  <docking_score>  (1) 
-3.625

$$$$

     RDKit          3D

 24 24  0  0  0  0  0  0  0  0999 V2000
   16.0046   -3.5729   -4.1981 C   0  0  0  0  0  0  0  0  0  0  0  0
   16.6832   -4.7989   -4.7989 C   0  0  1  0  0  0  0  0  0  0  0  0
   15.7115   -5.9569   -4.9079 C   0  0  0  0  0  0  0  0  0  0  0  0
   16.5594   -7.1407   -5.3903 C   0  0  2  0  0  0  0  0  0  0  0  0
   17.7495   -7.0752   -4.6694 O   0  0  0  0  0  0  0  0  0  0  0  0
   16.8531   -6.8922   -6.8436 C   0  0  2  0  0  0  0  0  0  0  0  0
   18.0159   -7.5863   -7.2119 O   0  0  0  0  0  0  0  0  0  0  0  0
   16.9100   -5.4515   -7.2156 C   0  0  1  0  0  0  0  0  0  0  0  0
   15.7931   -5.0537   -7.9253 O   0  0  0  0  0  0  0  0  0  0  0  0
   17.2554   -4.5102   -6.1374 C   0  0  1  0  0  0  0  0  0  0  0  0
   16.8237   -3.1633   -6.5362 N   0  0  0  0  0  0  0  0  0  0  0  0
   17.9319   -2.4707   -7.1681 C   0  0  0  0  0  3  0  0  0  0  0  0
   19.1485   -2.5467   -6.2955 C   0  0  0  0  0  0  0  0  0  0  0  0
   19.0818   -1.5778   -5.1345 C   0  0  0  0  0  3  0  0  0  0  0  0
   18.6690   -0.3397   -5.6247 O   0  0  0  0  0  0  0  0  0  0  0  0
   20.4379   -1.4627   -4.4692 C   0  0  1  0  0  0  0  0  0  0  0  0
   21.1629   -0.3757   -4.8987 O   0  0  0  0  0  0  0  0  0  0  0  0
   20.2621   -1.4079   -2.9715 C   0  0  1  0  0  0  0  0  0  0  0  0
   20.2432   -0.1140   -2.4896 O   0  0  0  0  0  0  0  0  0  0  0  0
   19.0059   -2.1301   -2.5629 C   0  0  2  0  0  0  0  0  0  0  0  0
   18.1074   -1.2699   -1.9322 O   0  0  0  0  0  0  0  0  0  0  0  0
   19.3965   -3.2464   -1.6035 C   0  0  0  0  0  0  0  0  0  0  0  0
   18.7774   -4.4220   -2.0197 O   0  0  0  0  0  0  0  0  0  0  0  0
   20.7973   -3.4198   -1.5869 O   0  0  0  0  0  0  0  0  0  0  0  0
  2  1  1  6
  2  3  1  0
  3  4  1  0
  4  5  1  1
  4  6  1  0
  6  7  1  1
  6  8  1  0
  8  9  1  1
  8 10  1  0
 10 11  1  6
 11 12  1  0
 12 13  1  0
 13 14  1  0
 14 15  1  0
 14 16  1  0
 16 17  1  6
 16 18  1  0
 18 19  1  6
 18 20  1  0
 20 21  1  1
 20 22  1  0
 22 23  1  0
 22 24  1  0
 10  2  1  0
M  RAD  2  12   2  14   2
M  END
>  <docking_score>  (2) 
-3.4689999999999999

$$$$

     RDKit          3D

 24 24  0  0  0  0  0  0  0  0999 V2000
   17.5906   -6.4284   -8.7398 C   0  0  0  0  0  0  0  0  0  0  0  0
   17.2534   -6.3215   -7.2567 C   0  0  1  0  0  0  0  0  0  0  0  0
   17.4226   -7.6594   -6.5650 C   0  0  0  0  0  0  0  0  0  0  0  0
   16.9210   -7.4307   -5.1335 C   0  0  2  0  0  0  0  0  0  0  0  0
   15.7677   -6.6587   -5.2531 O   0  0  0  0  0  0  0  0  0  0  0  0
   17.9792   -6.6247   -4.4331 C   0  0  2  0  0  0  0  0  0  0  0  0
   17.4037   -5.9285   -3.3591 O   0  0  0  0  0  0  0  0  0  0  0  0
   18.7614   -5.7333   -5.3338 C   0  0  1  0  0  0  0  0  0  0  0  0
   20.0365   -6.2145   -5.5614 O   0  0  0  0  0  0  0  0  0  0  0  0
   18.0923   -5.3056   -6.5737 C   0  0  1  0  0  0  0  0  0  0  0  0
   19.1160   -4.8474   -7.5233 N   0  0  0  0  0  0  0  0  0  0  0  0
   18.9316   -3.4311   -7.7826 C   0  0  0  0  0  3  0  0  0  0  0  0
   19.8628   -2.6274   -6.9257 C   0  0  0  0  0  0  0  0  0  0  0  0
   19.1923   -1.4000   -6.3467 C   0  0  0  0  0  3  0  0  0  0  0  0
   20.1410   -0.3813   -6.2713 O   0  0  0  0  0  0  0  0  0  0  0  0
   18.6303   -1.7080   -4.9741 C   0  0  1  0  0  0  0  0  0  0  0  0
   19.1677   -0.9252   -3.9791 O   0  0  0  0  0  0  0  0  0  0  0  0
   17.1291   -1.5557   -4.9978 C   0  0  1  0  0  0  0  0  0  0  0  0
   16.6568   -1.1783   -6.2393 O   0  0  0  0  0  0  0  0  0  0  0  0
   16.4642   -2.8328   -4.5582 C   0  0  2  0  0  0  0  0  0  0  0  0
   15.5251   -3.2653   -5.4943 O   0  0  0  0  0  0  0  0  0  0  0  0
   15.7692   -2.5676   -3.2294 C   0  0  0  0  0  0  0  0  0  0  0  0
   16.7235   -2.6117   -2.2164 O   0  0  0  0  0  0  0  0  0  0  0  0
   15.1384   -1.3049   -3.2419 O   0  0  0  0  0  0  0  0  0  0  0  0
  2  1  1  6
  2  3  1  0
  3  4  1  0
  4  5  1  6
  4  6  1  0
  6  7  1  1
  6  8  1  0
  8  9  1  6
  8 10  1  0
 10 11  1  6
 11 12  1  0
 12 13  1  0
 13 14  1  0
 14 15  1  0
 14 16  1  0
 16 17  1  1
 16 18  1  0
 18 19  1  6
 18 20  1  0
 20 21  1  6
 20 22  1  0
 22 23  1  0
 22 24  1  0
 10  2  1  0
M  RAD  2  12   2  14   2
M  END
>  <docking_score>  (3) 
-3.4249999999999998

$$$$
