
     RDKit          3D

 39 42  0  0  0  0  0  0  0  0999 V2000
   17.5515  -11.6238   -7.8835 C   0  0  0  0  0  0  0  0  0  0  0  0
   17.7119  -10.3761   -7.2311 O   0  0  0  0  0  0  0  0  0  0  0  0
   18.3181   -9.3440   -7.9782 C   0  0  0  0  0  0  0  0  0  0  0  0
   17.9982   -8.0716   -7.6801 C   0  0  0  0  0  0  0  0  0  0  0  0
   17.0566   -7.8016   -6.6172 C   0  0  0  0  0  0  0  0  0  0  0  0
   17.2212   -8.2233   -5.4087 C   0  0  0  0  0  0  0  0  0  0  0  0
   18.3681   -9.0194   -4.9611 C   0  0  0  0  0  0  0  0  0  0  0  0
   19.2780   -8.1562   -4.1287 C   0  0  0  0  0  0  0  0  0  0  0  0
   20.5123   -7.8987   -4.8472 N   0  0  0  0  0  0  0  0  0  0  0  0
   21.2159   -9.1943   -4.9016 C   0  0  0  0  0  0  0  0  0  0  0  0
   21.3796   -6.9971   -4.0948 C   0  0  0  0  0  0  0  0  0  0  0  0
   20.6285   -6.3302   -2.9896 C   0  0  0  0  0  0  0  0  0  0  0  0
   19.7242   -5.2084   -3.4251 C   0  0  0  0  0  0  0  0  0  0  0  0
   20.5377   -4.0281   -3.8033 C   0  0  0  0  0  0  0  0  0  0  0  0
   20.0138   -3.0233   -4.5610 N   0  0  0  0  0  0  0  0  0  0  0  0
   18.9715   -3.0806   -5.4254 C   0  0  2  0  0  0  0  0  0  0  0  0
   18.8542   -2.0900   -6.3288 C   0  0  0  0  0  0  0  0  0  0  0  0
   18.7735   -0.2311   -6.0314 Br  0  0  0  0  0  0  0  0  0  0  0  0
   17.5784   -2.7779   -4.6523 C   0  0  0  0  0  0  0  0  0  0  0  0
   16.6555   -3.3880   -5.3890 C   0  0  0  0  0  0  0  0  0  0  0  0
   17.3016   -4.0587   -6.5889 C   0  0  0  0  0  0  0  0  0  0  0  0
   17.3522   -3.8633   -7.8293 C   0  0  0  0  0  0  0  0  0  0  0  0
   16.5317   -2.5598   -8.6776 S   0  0  0  0  0  0  0  0  0  0  0  0
   14.9957   -2.0691   -7.8692 C   0  0  0  0  0  0  0  0  0  0  0  0
   18.3753   -4.6180   -8.7322 C   0  0  0  0  0  0  0  0  0  0  0  0
   19.6436   -4.4990   -8.1650 O   0  0  0  0  0  0  0  0  0  0  0  0
   20.4407   -3.4027   -8.3350 C   0  0  0  0  0  0  0  0  0  0  0  0
   21.2233   -3.0915   -7.0789 C   0  0  0  0  0  0  0  0  0  0  0  0
   21.1455   -1.8349   -6.3199 C   0  0  0  0  0  0  0  0  0  0  0  0
   20.9176   -1.8519   -4.8364 C   0  0  1  0  0  0  0  0  0  0  0  0
   20.3345   -0.8880   -4.0441 C   0  0  2  0  0  0  0  0  0  0  0  0
   19.8388   -0.1755   -2.9854 C   0  0  0  0  0  0  0  0  0  0  0  0
   19.1526   -1.5315   -2.8107 S   0  0  1  0  0  0  0  0  0  0  0  0
   17.7418   -1.9617   -3.5488 C   0  0  0  0  0  0  0  0  0  0  0  0
   16.6469   -1.2953   -2.8211 C   0  0  0  0  0  0  0  0  0  0  0  0
   15.3164   -1.3815   -3.4781 C   0  0  0  0  0  0  0  0  0  0  0  0
   15.1279   -0.2819   -4.4900 C   0  0  0  0  0  0  0  0  0  0  0  0
   14.4605   -0.8305   -5.7400 C   0  0  0  0  0  0  0  0  0  0  0  0
   15.2373   -1.4252   -6.5920 C   0  0  0  0  0  0  0  0  0  0  0  0
  1  2  1  0
  2  3  1  0
  3  4  2  3
  4  5  1  0
  5  6  2  3
  6  7  1  0
  7  8  1  0
  8  9  1  0
  9 10  1  0
  9 11  1  0
 11 12  1  0
 12 13  1  0
 13 14  1  0
 14 15  1  0
 15 16  1  0
 16 17  1  6
 17 18  1  0
 16 19  1  0
 19 20  2  3
 20 21  1  0
 21 22  2  3
 22 23  1  0
 23 24  1  0
 22 25  1  0
 25 26  1  0
 26 27  1  0
 27 28  1  0
 28 29  1  0
 30 29  1  6
 30 31  1  0
 31 32  1  1
 32 33  2  0
 33 34  2  0
 34 35  1  0
 35 36  1  0
 36 37  1  0
 37 38  1  0
 38 39  2  3
 30 15  1  0
 34 19  1  0
 39 24  1  0
 33 31  1  6
M  END
>  <docking_score>  (1) 
-2.593

$$$$

     RDKit          3D

 39 42  0  0  0  0  0  0  0  0999 V2000
    3.6308    8.8143   11.9255 C   0  0  0  0  0  0  0  0  0  0  0  0
    3.0649   10.0013   12.4539 O   0  0  0  0  0  0  0  0  0  0  0  0
    3.4233   10.3398   13.7759 C   0  0  0  0  0  0  0  0  0  0  0  0
    3.0284   11.5331   14.2556 C   0  0  0  0  0  0  0  0  0  0  0  0
    2.2580   12.4218   13.4153 C   0  0  0  0  0  0  0  0  0  0  0  0
    2.7979   13.3146   12.6559 C   0  0  0  0  0  0  0  0  0  0  0  0
    4.2422   13.5415   12.5463 C   0  0  0  0  0  0  0  0  0  0  0  0
    4.6418   13.5099   11.0954 C   0  0  0  0  0  0  0  0  0  0  0  0
    5.3761   14.7148   10.7563 N   0  0  0  0  0  0  0  0  0  0  0  0
    4.3702   15.6554   10.2271 C   0  0  0  0  0  0  0  0  0  0  0  0
    6.3145   14.4683    9.6655 C   0  0  0  0  0  0  0  0  0  0  0  0
    6.0045   15.3319    8.4872 C   0  0  0  0  0  0  0  0  0  0  0  0
    5.7920   14.5886    7.1956 C   0  0  0  0  0  0  0  0  0  0  0  0
    5.6097   13.1439    7.4738 C   0  0  0  0  0  0  0  0  0  0  0  0
    4.5084   12.4734    7.0313 N   0  0  0  0  0  0  0  0  0  0  0  0
    4.2468   12.0234    5.7799 C   0  0  2  0  0  0  0  0  0  0  0  0
    2.9703   11.7218    5.4788 C   0  0  0  0  0  0  0  0  0  0  0  0
    2.2575   10.0793    4.8918 Br  0  0  0  0  0  0  0  0  0  0  0  0
    4.8315   10.5234    5.5846 C   0  0  0  0  0  0  0  0  0  0  0  0
    5.0327   10.4180    4.2750 C   0  0  0  0  0  0  0  0  0  0  0  0
    4.6243   11.7036    3.5767 C   0  0  0  0  0  0  0  0  0  0  0  0
    3.6860   12.0816    2.8311 C   0  0  0  0  0  0  0  0  0  0  0  0
    2.3747   11.0565    2.2641 S   0  0  0  0  0  0  0  0  0  0  0  0
    2.8753    9.3333    2.0806 C   0  0  0  0  0  0  0  0  0  0  0  0
    3.4399   13.5924    2.5332 C   0  0  0  0  0  0  0  0  0  0  0  0
    3.4162   14.2874    3.7419 O   0  0  0  0  0  0  0  0  0  0  0  0
    2.3123   14.3594    4.5434 C   0  0  0  0  0  0  0  0  0  0  0  0
    2.6926   14.3337    6.0069 C   0  0  0  0  0  0  0  0  0  0  0  0
    2.2575   13.3205    6.9792 C   0  0  0  0  0  0  0  0  0  0  0  0
    3.2577   12.6236    7.8549 C   0  0  1  0  0  0  0  0  0  0  0  0
    3.1774   11.3733    8.4269 C   0  0  2  0  0  0  0  0  0  0  0  0
    3.4310   10.2301    9.1361 C   0  0  0  0  0  0  0  0  0  0  0  0
    4.7047   10.3815    8.3025 S   0  0  1  0  0  0  0  0  0  0  0  0
    4.8843    9.8084    6.7664 C   0  0  0  0  0  0  0  0  0  0  0  0
    5.1020    8.3540    6.8651 C   0  0  0  0  0  0  0  0  0  0  0  0
    5.0592    7.6263    5.5698 C   0  0  0  0  0  0  0  0  0  0  0  0
    3.6499    7.2505    5.1938 C   0  0  0  0  0  0  0  0  0  0  0  0
    3.4229    7.4902    3.7106 C   0  0  0  0  0  0  0  0  0  0  0  0
    3.1473    8.7088    3.3613 C   0  0  0  0  0  0  0  0  0  0  0  0
  1  2  1  0
  2  3  1  0
  3  4  2  3
  4  5  1  0
  5  6  2  3
  6  7  1  0
  7  8  1  0
  8  9  1  0
  9 10  1  0
  9 11  1  0
 11 12  1  0
 12 13  1  0
 13 14  1  0
 14 15  1  0
 15 16  1  0
 16 17  1  1
 17 18  1  0
 16 19  1  0
 19 20  2  3
 20 21  1  0
 21 22  2  3
 22 23  1  0
 23 24  1  0
 22 25  1  0
 25 26  1  0
 26 27  1  0
 27 28  1  0
 28 29  1  0
 30 29  1  6
 30 31  1  0
 31 32  1  1
 32 33  2  0
 33 34  2  0
 34 35  1  0
 35 36  1  0
 36 37  1  0
 37 38  1  0
 38 39  2  3
 30 15  1  0
 34 19  1  0
 39 24  1  0
 33 31  1  6
M  END
>  <docking_score>  (2) 
-0.53600000000000003

$$$$
