
     RDKit          3D

 34 37  0  0  0  0  0  0  0  0999 V2000
    4.4396   10.8853   10.1984 C   0  0  2  0  0  0  0  0  0  0  0  0
    3.6977   12.1853   10.5314 C   0  0  1  0  0  0  0  0  0  0  0  0
    4.3394   12.8167   11.7321 C   0  0  0  0  0  0  0  0  0  0  0  0
    3.8287   13.1483    9.3551 C   0  0  0  0  0  0  0  0  0  0  0  0
    4.2732   14.5004    9.8412 C   0  0  0  0  0  0  0  0  0  0  0  0
    5.7781   14.6780    9.7056 C   0  0  0  0  0  0  0  0  0  0  0  0
    6.2487   14.2586    8.3320 C   0  0  1  0  0  0  0  0  0  0  0  0
    5.0377   13.9685    7.4699 C   0  0  0  0  0  0  0  0  0  0  0  0
    7.0456   15.3335    7.6481 C   0  0  0  0  0  3  0  0  0  0  0  0
    7.4499   14.8373    6.2856 C   0  0  0  0  0  0  0  0  0  0  0  0
    6.3626   14.9597    5.2588 C   0  0  0  0  0  0  0  0  0  0  0  0
    6.5280   13.9084    4.1714 C   0  0  2  0  0  0  0  0  0  0  0  0
    6.5769   14.5610    2.8064 C   0  0  0  0  0  0  0  0  0  0  0  0
    5.4126   12.9111    4.2104 C   0  0  0  0  0  3  0  0  0  0  0  0
    5.3133   12.1743    2.9133 C   0  0  0  0  0  0  0  0  0  0  0  0
    6.2722   11.0257    2.7885 C   0  0  1  0  0  0  0  0  0  0  0  0
    7.6214   11.3074    3.3994 C   0  0  0  0  0  0  0  0  0  0  0  0
    5.6994    9.7066    3.1792 C   0  0  0  0  0  0  0  0  0  0  0  0
    5.5704    9.4631    4.5871 C   0  0  0  0  0  0  0  0  0  0  0  0
    4.8020    8.8552    5.3944 C   0  0  0  0  0  0  0  0  0  0  0  0
    5.1858    8.9574    6.8037 N   0  0  0  0  0  0  0  0  0  0  0  0
    3.5659    8.0083    5.5135 C   0  0  1  0  0  0  0  0  0  0  0  0
    3.3815    6.9904    6.4816 C   0  0  0  0  0  0  0  0  0  0  0  0
    2.9691    8.3894    6.7581 N   0  0  0  0  0  0  0  0  0  0  0  0
    3.9189    9.2131    7.4700 C   0  0  1  0  0  0  0  0  0  0  0  0
    3.9901    8.8765    8.9444 C   0  0  0  0  0  0  0  0  0  0  0  0
    3.4616    9.9724    9.6844 N   0  0  0  0  0  0  0  0  0  0  0  0
    2.4575    9.6528   10.5712 N   0  0  0  0  0  0  0  0  0  0  0  0
    2.5920    8.4083   11.1643 N   0  0  0  0  0  0  0  0  0  0  0  0
    3.4448    8.5267   12.2585 N   0  0  0  0  0  0  0  0  0  0  0  0
    4.7323    7.9837   11.8744 C   0  0  0  0  0  0  0  0  0  0  0  0
    5.6697    9.0319   11.3612 C   0  0  0  0  0  0  0  0  0  0  0  0
    5.1108   10.4138   11.4493 C   0  0  2  0  0  0  0  0  0  0  0  0
    4.2376   10.5937   12.6116 N   0  0  0  0  0  0  0  0  0  0  0  0
  1  2  1  0
  2  3  1  1
  2  4  1  0
  4  5  1  0
  5  6  1  0
  6  7  1  0
  7  8  1  6
  7  9  1  0
  9 10  1  0
 10 11  1  0
 11 12  1  0
 12 13  1  6
 12 14  1  0
 14 15  1  0
 15 16  1  0
 16 17  1  1
 16 18  1  0
 18 19  1  0
 19 20  2  3
 20 21  1  0
 20 22  1  0
 22 23  1  1
 22 24  1  0
 24 25  1  0
 25 26  1  1
 26 27  1  0
 27 28  1  0
 28 29  1  0
 29 30  1  0
 30 31  1  0
 31 32  1  0
 32 33  1  0
 33 34  1  1
  1 27  1  1
 33  1  1  0
 25 21  1  0
 24 23  1  0
M  RAD  2   9   2  14   2
M  END
>  <docking_score>  (1) 
-6.1970000000000001

$$$$

     RDKit          3D

 34 37  0  0  0  0  0  0  0  0999 V2000
    3.8937    9.0546    6.7870 C   0  0  2  0  0  0  0  0  0  0  0  0
    2.8057    8.6020    7.7682 C   0  0  1  0  0  0  0  0  0  0  0  0
    3.0852    7.1875    8.1845 C   0  0  0  0  0  0  0  0  0  0  0  0
    2.8564    9.4869    9.0102 C   0  0  0  0  0  0  0  0  0  0  0  0
    2.8676    8.6363   10.2505 C   0  0  0  0  0  0  0  0  0  0  0  0
    4.2811    8.4218   10.7705 C   0  0  0  0  0  0  0  0  0  0  0  0
    5.0365    9.7293   10.8335 C   0  0  1  0  0  0  0  0  0  0  0  0
    4.0769   10.8611   10.5302 C   0  0  0  0  0  0  0  0  0  0  0  0
    5.6243    9.9847   12.1927 C   0  0  0  0  0  3  0  0  0  0  0  0
    6.3342   11.3119   12.1665 C   0  0  0  0  0  0  0  0  0  0  0  0
    5.4118   12.4854   12.3209 C   0  0  0  0  0  0  0  0  0  0  0  0
    5.9945   13.7203   11.6495 C   0  0  2  0  0  0  0  0  0  0  0  0
    6.0729   14.8699   12.6312 C   0  0  0  0  0  0  0  0  0  0  0  0
    5.1757   14.1278   10.4647 C   0  0  0  0  0  3  0  0  0  0  0  0
    5.4556   15.5475   10.0886 C   0  0  0  0  0  0  0  0  0  0  0  0
    6.6825   15.7241    9.2414 C   0  0  1  0  0  0  0  0  0  0  0  0
    7.8128   14.8059    9.6316 C   0  0  0  0  0  0  0  0  0  0  0  0
    6.4136   15.7567    7.7761 C   0  0  0  0  0  0  0  0  0  0  0  0
    6.1484   14.4926    7.1518 C   0  0  0  0  0  0  0  0  0  0  0  0
    5.4513   14.0112    6.2062 C   0  0  0  0  0  0  0  0  0  0  0  0
    5.5884   12.5660    6.0152 N   0  0  0  0  0  0  0  0  0  0  0  0
    4.4672   14.3339    5.1167 C   0  0  1  0  0  0  0  0  0  0  0  0
    4.4095   13.6705    3.8661 C   0  0  0  0  0  0  0  0  0  0  0  0
    3.6195   13.1834    5.0248 N   0  0  0  0  0  0  0  0  0  0  0  0
    4.2156   12.1308    5.8149 C   0  0  1  0  0  0  0  0  0  0  0  0
    4.1558   10.7831    5.1277 C   0  0  0  0  0  0  0  0  0  0  0  0
    3.2648    9.9436    5.8552 N   0  0  0  0  0  0  0  0  0  0  0  0
    2.2577    9.3709    5.1107 N   0  0  0  0  0  0  0  0  0  0  0  0
    2.6167    9.0506    3.8119 N   0  0  0  0  0  0  0  0  0  0  0  0
    3.2438    7.8075    3.8174 N   0  0  0  0  0  0  0  0  0  0  0  0
    4.6686    8.0323    3.6776 C   0  0  0  0  0  0  0  0  0  0  0  0
    5.3728    8.1021    4.9967 C   0  0  0  0  0  0  0  0  0  0  0  0
    4.4745    7.8282    6.1576 C   0  0  2  0  0  0  0  0  0  0  0  0
    3.4256    6.8564    5.8392 N   0  0  0  0  0  0  0  0  0  0  0  0
  1  2  1  0
  2  3  1  1
  2  4  1  0
  4  5  1  0
  5  6  1  0
  6  7  1  0
  7  8  1  1
  7  9  1  0
  9 10  1  0
 10 11  1  0
 11 12  1  0
 12 13  1  1
 12 14  1  0
 14 15  1  0
 15 16  1  0
 16 17  1  6
 16 18  1  0
 18 19  1  0
 19 20  2  3
 20 21  1  0
 20 22  1  0
 22 23  1  6
 22 24  1  0
 24 25  1  0
 25 26  1  6
 26 27  1  0
 27 28  1  0
 28 29  1  0
 29 30  1  0
 30 31  1  0
 31 32  1  0
 32 33  1  0
 33 34  1  6
  1 27  1  6
 33  1  1  0
 25 21  1  0
 24 23  1  0
M  RAD  2   9   2  14   2
M  END
>  <docking_score>  (2) 
-5.5129999999999999

$$$$

     RDKit          3D

 34 37  0  0  0  0  0  0  0  0999 V2000
    3.7676   10.5455   11.5372 C   0  0  2  0  0  0  0  0  0  0  0  0
    4.1068    9.0954   11.1716 C   0  0  1  0  0  0  0  0  0  0  0  0
    2.8866    8.2455   11.3740 C   0  0  0  0  0  0  0  0  0  0  0  0
    4.4968    9.0321    9.6978 C   0  0  0  0  0  0  0  0  0  0  0  0
    3.7373    7.9316    9.0092 C   0  0  0  0  0  0  0  0  0  0  0  0
    2.5000    8.4625    8.3009 C   0  0  0  0  0  0  0  0  0  0  0  0
    2.8345    9.6817    7.4728 C   0  0  1  0  0  0  0  0  0  0  0  0
    4.3370    9.8721    7.4713 C   0  0  0  0  0  0  0  0  0  0  0  0
    2.3936    9.5401    6.0432 C   0  0  0  0  0  3  0  0  0  0  0  0
    2.7867   10.7854    5.2944 C   0  0  0  0  0  0  0  0  0  0  0  0
    4.2265   10.7985    4.8720 C   0  0  0  0  0  0  0  0  0  0  0  0
    4.7391   12.2259    4.7505 C   0  0  2  0  0  0  0  0  0  0  0  0
    5.3255   12.4632    3.3753 C   0  0  0  0  0  0  0  0  0  0  0  0
    5.7721   12.5193    5.7932 C   0  0  0  0  0  3  0  0  0  0  0  0
    6.5870   13.7135    5.4124 C   0  0  0  0  0  0  0  0  0  0  0  0
    5.9415   15.0262    5.7508 C   0  0  1  0  0  0  0  0  0  0  0  0
    4.4488   15.0278    5.5393 C   0  0  0  0  0  0  0  0  0  0  0  0
    6.3630   15.5941    7.0626 C   0  0  0  0  0  0  0  0  0  0  0  0
    5.7835   14.9933    8.2293 C   0  0  0  0  0  0  0  0  0  0  0  0
    6.0916   14.7286    9.4321 C   0  0  0  0  0  0  0  0  0  0  0  0
    5.0384   14.0683   10.2057 N   0  0  0  0  0  0  0  0  0  0  0  0
    7.1727   14.8188   10.4726 C   0  0  1  0  0  0  0  0  0  0  0  0
    6.9393   15.0111   11.8567 C   0  0  0  0  0  0  0  0  0  0  0  0
    7.0154   13.6458   11.2788 N   0  0  0  0  0  0  0  0  0  0  0  0
    5.7605   13.0270   10.9190 C   0  0  1  0  0  0  0  0  0  0  0  0
    4.9849   12.5411   12.1250 C   0  0  0  0  0  0  0  0  0  0  0  0
    4.9550   11.1175   12.0999 N   0  0  0  0  0  0  0  0  0  0  0  0
    5.3965   10.5004   13.2492 N   0  0  0  0  0  0  0  0  0  0  0  0
    5.1024   11.1856   14.4164 N   0  0  0  0  0  0  0  0  0  0  0  0
    3.8057   10.8626   14.8074 N   0  0  0  0  0  0  0  0  0  0  0  0
    2.9511   11.9822   14.4668 C   0  0  0  0  0  0  0  0  0  0  0  0
    2.3060   11.8272   13.1250 C   0  0  0  0  0  0  0  0  0  0  0  0
    2.6046   10.5152   12.4775 C   0  0  2  0  0  0  0  0  0  0  0  0
    2.7454    9.4283   13.4494 N   0  0  0  0  0  0  0  0  0  0  0  0
  1  2  1  0
  2  3  1  6
  2  4  1  0
  4  5  1  0
  5  6  1  0
  6  7  1  0
  7  8  1  6
  7  9  1  0
  9 10  1  0
 10 11  1  0
 11 12  1  0
 12 13  1  6
 12 14  1  0
 14 15  1  0
 15 16  1  0
 16 17  1  1
 16 18  1  0
 18 19  1  0
 19 20  2  3
 20 21  1  0
 20 22  1  0
 22 23  1  1
 22 24  1  0
 24 25  1  0
 25 26  1  1
 26 27  1  0
 27 28  1  0
 28 29  1  0
 29 30  1  0
 30 31  1  0
 31 32  1  0
 32 33  1  0
 33 34  1  1
  1 27  1  1
 33  1  1  0
 25 21  1  0
 24 23  1  0
M  RAD  2   9   2  14   2
M  END
>  <docking_score>  (3) 
-4.8150000000000004

$$$$
