
     RDKit          3D

 11 11  0  0  0  0  0  0  0  0999 V2000
    5.8606   12.5201    1.6310 O   0  0  0  0  0  0  0  0  0  0  0  0
    5.5774   13.2308    2.7955 C   0  0  0  0  0  0  0  0  0  0  0  0
    6.8032   13.8811    3.3755 C   0  0  2  0  0  0  0  0  0  0  0  0
    6.7405   15.2669    3.2131 N   0  0  0  0  0  0  0  0  0  0  0  0
    7.7333   15.9424    2.5127 C   0  0  0  0  0  0  0  0  0  0  0  0
    9.0840   15.3376    2.4384 C   0  0  2  0  0  0  0  0  0  0  0  0
    9.3636   14.9584    1.1288 O   0  0  0  0  0  0  0  0  0  0  0  0
    9.2257   14.1205    3.3245 C   0  0  1  0  0  0  0  0  0  0  0  0
    9.1585   14.5728    4.6485 O   0  0  0  0  0  0  0  0  0  0  0  0
    8.0744   13.2052    2.9834 C   0  0  1  0  0  0  0  0  0  0  0  0
    8.2658   12.0208    3.7160 O   0  0  0  0  0  0  0  0  0  0  0  0
  1  2  1  0
  3  2  1  6
  3  4  1  0
  4  5  1  0
  5  6  1  0
  6  7  1  6
  6  8  1  0
  8  9  1  1
  8 10  1  0
 10 11  1  1
 10  3  1  0
M  END
>  <docking_score>  (1) 
-3.3420000000000001

$$$$

     RDKit          3D

 11 11  0  0  0  0  0  0  0  0999 V2000
   14.0231   -3.4815   -5.4281 O   0  0  0  0  0  0  0  0  0  0  0  0
   15.2778   -2.9540   -5.1298 C   0  0  0  0  0  0  0  0  0  0  0  0
   15.7224   -3.3016   -3.7357 C   0  0  2  0  0  0  0  0  0  0  0  0
   16.0661   -2.1444   -3.0331 N   0  0  0  0  0  0  0  0  0  0  0  0
   17.3429   -1.9907   -2.5053 C   0  0  0  0  0  0  0  0  0  0  0  0
   18.1274   -3.2059   -2.1838 C   0  0  2  0  0  0  0  0  0  0  0  0
   19.2254   -3.3016   -3.0336 O   0  0  0  0  0  0  0  0  0  0  0  0
   17.3147   -4.4744   -2.3153 C   0  0  1  0  0  0  0  0  0  0  0  0
   16.3517   -4.4462   -1.2984 O   0  0  0  0  0  0  0  0  0  0  0  0
   16.6854   -4.4404   -3.6873 C   0  0  1  0  0  0  0  0  0  0  0  0
   16.0264   -5.6695   -3.8629 O   0  0  0  0  0  0  0  0  0  0  0  0
  1  2  1  0
  3  2  1  6
  3  4  1  0
  4  5  1  0
  5  6  1  0
  6  7  1  6
  6  8  1  0
  8  9  1  1
  8 10  1  0
 10 11  1  1
 10  3  1  0
M  END
>  <docking_score>  (2) 
-3.3340000000000001

$$$$

     RDKit          3D

 11 11  0  0  0  0  0  0  0  0999 V2000
   15.8174   -2.0002   -3.2201 O   0  0  0  0  0  0  0  0  0  0  0  0
   16.1816   -3.2693   -2.7749 C   0  0  0  0  0  0  0  0  0  0  0  0
   16.4594   -4.2117   -3.9136 C   0  0  2  0  0  0  0  0  0  0  0  0
   15.5303   -4.0213   -4.9389 N   0  0  0  0  0  0  0  0  0  0  0  0
   14.7234   -5.0699   -5.3657 C   0  0  0  0  0  0  0  0  0  0  0  0
   15.2039   -6.4579   -5.1706 C   0  0  2  0  0  0  0  0  0  0  0  0
   14.4004   -7.1129   -4.2419 O   0  0  0  0  0  0  0  0  0  0  0  0
   16.6342   -6.5151   -4.6832 C   0  0  1  0  0  0  0  0  0  0  0  0
   17.4387   -6.0507   -5.7317 O   0  0  0  0  0  0  0  0  0  0  0  0
   16.7116   -5.6151   -3.4735 C   0  0  1  0  0  0  0  0  0  0  0  0
   18.0062   -5.7556   -2.9443 O   0  0  0  0  0  0  0  0  0  0  0  0
  1  2  1  0
  3  2  1  1
  3  4  1  0
  4  5  1  0
  5  6  1  0
  6  7  1  1
  6  8  1  0
  8  9  1  6
  8 10  1  0
 10 11  1  6
 10  3  1  0
M  END
>  <docking_score>  (3) 
-3.3100000000000001

$$$$
