
     RDKit          3D

 32 33  0  0  0  0  0  0  0  0999 V2000
    3.4902    8.4196   10.5929 C   0  0  0  0  0  0  0  0  0  0  0  0
    4.7387    9.1945   10.9140 C   0  0  2  0  0  0  0  0  0  0  0  0
    5.7561    8.2723   11.5403 C   0  0  0  0  0  0  0  0  0  0  0  0
    4.4997   10.3306   11.8696 C   0  0  0  0  0  0  0  0  0  0  0  0
    5.3628   11.5212   11.4958 C   0  0  0  0  0  0  0  0  0  0  0  0
    4.4585   12.7430   11.5483 C   0  0  0  0  0  0  0  0  0  0  0  0
    5.1929   14.0130   11.2225 C   0  0  1  0  0  0  0  0  0  0  0  0
    4.3498   15.1665   11.7424 C   0  0  0  0  0  0  0  0  0  0  0  0
    6.5944   14.0390   11.7705 C   0  0  0  0  0  3  0  0  0  0  0  0
    7.5797   14.0204   10.6309 C   0  0  0  0  0  0  0  0  0  0  0  0
    8.0990   15.3969   10.3104 C   0  0  0  0  0  3  0  0  0  0  0  0
    7.6417   15.8323    8.9462 C   0  0  0  0  0  3  0  0  0  0  0  0
    6.1356   15.9277    8.9292 C   0  0  0  0  0  2  0  0  0  0  0  0
    8.1498   14.8764    7.9013 C   0  0  0  0  0  3  0  0  0  0  0  0
    8.5308   15.6927    6.6846 C   0  0  0  0  0  3  0  0  0  0  0  0
    7.9626   15.0647    5.4273 C   0  0  0  0  0  0  0  0  0  0  0  0
    6.4482   15.2356    5.4316 C   0  0  1  0  0  0  0  0  0  0  0  0
    6.0777   16.0741    4.2356 C   0  0  0  0  0  2  0  0  0  0  0  0
    5.7640   13.8951    5.3916 C   0  0  0  0  0  3  0  0  0  0  0  0
    6.7524   12.7560    5.3548 C   0  0  0  0  0  0  0  0  0  0  0  0
    6.3459   11.6664    4.4006 C   0  0  0  0  0  0  0  0  0  0  0  0
    4.8760   11.3456    4.4586 C   0  0  0  0  0  0  0  0  0  0  0  0
    4.7272    9.8530    4.2229 C   0  0  0  0  0  0  0  0  0  0  0  0
    3.4547    9.5570    3.4783 C   0  0  0  0  0  2  0  0  0  0  0  0
    5.9212    9.3855    3.4026 C   0  0  0  0  0  2  0  0  0  0  0  0
    4.7459    9.1524    5.4135 O   0  0  0  0  0  0  0  0  0  0  0  0
    3.5206    8.6406    5.7833 C   0  0  2  0  0  0  0  0  0  0  0  0
    2.3003    9.4497    5.8471 C   0  0  0  0  0  3  0  0  0  0  0  0
    3.1230    9.4296    7.0698 C   0  0  0  0  0  3  0  0  0  0  0  0
    2.9472    8.3987    8.1408 C   0  0  0  0  0  0  0  0  0  0  0  0
    2.7309    9.0750    9.4691 C   0  0  2  0  0  0  0  0  0  0  0  0
    3.0367   10.5526    9.3471 C   0  0  0  0  0  2  0  0  0  0  0  0
  1  2  1  0
  2  3  1  1
  2  4  1  0
  4  5  1  0
  5  6  1  0
  6  7  1  0
  7  8  1  1
  7  9  1  0
  9 10  1  0
 10 11  1  0
 11 12  1  0
 12 13  1  0
 12 14  1  0
 14 15  1  0
 15 16  1  0
 16 17  1  0
 17 18  1  6
 17 19  1  0
 19 20  1  0
 20 21  1  0
 21 22  1  0
 22 23  1  0
 23 24  1  0
 23 25  1  0
 23 26  1  0
 26 27  1  0
 27 28  1  6
 28 29  1  0
 29 30  1  0
 30 31  1  0
 31 32  1  6
 31  1  1  0
 29 27  1  0
M  RAD  8   9   2  11   2  12   2  13   3  14   2  15   2  18   3  19   2
M  RAD  5  24   3  25   3  28   2  29   2  32   3
M  END
>  <docking_score>  (1) 
-3.754

$$$$

     RDKit          3D

 32 33  0  0  0  0  0  0  0  0999 V2000
    4.8382    9.4553   11.7905 C   0  0  0  0  0  0  0  0  0  0  0  0
    5.8488   10.4463   11.2817 C   0  0  2  0  0  0  0  0  0  0  0  0
    7.2117   10.1025   11.8316 C   0  0  0  0  0  0  0  0  0  0  0  0
    5.5385   11.8632   11.6779 C   0  0  0  0  0  0  0  0  0  0  0  0
    5.8996   12.8141   10.5521 C   0  0  0  0  0  0  0  0  0  0  0  0
    4.7242   13.7671   10.3986 C   0  0  0  0  0  0  0  0  0  0  0  0
    4.9554   14.7927    9.3248 C   0  0  1  0  0  0  0  0  0  0  0  0
    3.9729   15.9274    9.5671 C   0  0  0  0  0  0  0  0  0  0  0  0
    6.3801   15.2746    9.2687 C   0  0  0  0  0  3  0  0  0  0  0  0
    7.0121   14.8245    7.9773 C   0  0  0  0  0  0  0  0  0  0  0  0
    7.0150   15.9153    6.9394 C   0  0  0  0  0  3  0  0  0  0  0  0
    6.1265   15.5501    5.7832 C   0  0  0  0  0  3  0  0  0  0  0  0
    4.7024   15.4222    6.2664 C   0  0  0  0  0  2  0  0  0  0  0  0
    6.6114   14.2795    5.1399 C   0  0  0  0  0  3  0  0  0  0  0  0
    6.4247   14.4263    3.6448 C   0  0  0  0  0  3  0  0  0  0  0  0
    5.7670   13.1874    3.0698 C   0  0  0  0  0  0  0  0  0  0  0  0
    4.3189   13.1336    3.5414 C   0  0  1  0  0  0  0  0  0  0  0  0
    3.4361   13.2093    2.3225 C   0  0  0  0  0  2  0  0  0  0  0  0
    4.0632   11.8726    4.3232 C   0  0  0  0  0  3  0  0  0  0  0  0
    5.2963   11.0095    4.4245 C   0  0  0  0  0  0  0  0  0  0  0  0
    4.9971    9.5468    4.2402 C   0  0  0  0  0  0  0  0  0  0  0  0
    3.7452    9.1039    4.9499 C   0  0  0  0  0  0  0  0  0  0  0  0
    3.9796    7.6869    5.4425 C   0  0  0  0  0  0  0  0  0  0  0  0
    2.7029    6.8931    5.4039 C   0  0  0  0  0  2  0  0  0  0  0  0
    5.0136    7.0383    4.5331 C   0  0  0  0  0  2  0  0  0  0  0  0
    4.4959    7.6797    6.7239 O   0  0  0  0  0  0  0  0  0  0  0  0
    3.6031    7.2606    7.6868 C   0  0  2  0  0  0  0  0  0  0  0  0
    2.2575    7.8230    7.8313 C   0  0  0  0  0  3  0  0  0  0  0  0
    3.3288    8.5229    8.5627 C   0  0  0  0  0  3  0  0  0  0  0  0
    3.7308    8.1471    9.9547 C   0  0  0  0  0  0  0  0  0  0  0  0
    3.6669    9.3578   10.8484 C   0  0  2  0  0  0  0  0  0  0  0  0
    3.4929   10.6054   10.0087 C   0  0  0  0  0  2  0  0  0  0  0  0
  1  2  1  0
  2  3  1  1
  2  4  1  0
  4  5  1  0
  5  6  1  0
  6  7  1  0
  7  8  1  1
  7  9  1  0
  9 10  1  0
 10 11  1  0
 11 12  1  0
 12 13  1  0
 12 14  1  0
 14 15  1  0
 15 16  1  0
 16 17  1  0
 17 18  1  6
 17 19  1  0
 19 20  1  0
 20 21  1  0
 21 22  1  0
 22 23  1  0
 23 24  1  0
 23 25  1  0
 23 26  1  0
 26 27  1  0
 27 28  1  6
 28 29  1  0
 29 30  1  0
 30 31  1  0
 31 32  1  6
 31  1  1  0
 29 27  1  0
M  RAD  8   9   2  11   2  12   2  13   3  14   2  15   2  18   3  19   2
M  RAD  5  24   3  25   3  28   2  29   2  32   3
M  END
>  <docking_score>  (2) 
-2.6949999999999998

$$$$

     RDKit          3D

 32 33  0  0  0  0  0  0  0  0999 V2000
    6.5381   15.6499   11.5910 C   0  0  0  0  0  0  0  0  0  0  0  0
    5.3445   14.7480   11.7464 C   0  0  2  0  0  0  0  0  0  0  0  0
    4.2312   15.5007   12.4336 C   0  0  0  0  0  0  0  0  0  0  0  0
    5.6358   13.5170   12.5594 C   0  0  0  0  0  0  0  0  0  0  0  0
    4.8878   12.3248   11.9928 C   0  0  0  0  0  0  0  0  0  0  0  0
    5.8851   11.1780   11.9339 C   0  0  0  0  0  0  0  0  0  0  0  0
    5.2697    9.9105   11.4111 C   0  0  1  0  0  0  0  0  0  0  0  0
    6.1817    8.7651   11.8208 C   0  0  0  0  0  0  0  0  0  0  0  0
    3.8539    9.7074   11.8796 C   0  0  0  0  0  3  0  0  0  0  0  0
    2.9172    9.8021   10.7034 C   0  0  0  0  0  0  0  0  0  0  0  0
    2.5245    8.4449   10.1832 C   0  0  0  0  0  3  0  0  0  0  0  0
    3.0702    8.2286    8.7993 C   0  0  0  0  0  3  0  0  0  0  0  0
    4.5786    8.2495    8.8465 C   0  0  0  0  0  2  0  0  0  0  0  0
    2.5290    9.2730    7.8613 C   0  0  0  0  0  3  0  0  0  0  0  0
    2.2648    8.5980    6.5323 C   0  0  0  0  0  3  0  0  0  0  0  0
    2.8306    9.4271    5.3963 C   0  0  0  0  0  0  0  0  0  0  0  0
    4.3524    9.3712    5.4552 C   0  0  1  0  0  0  0  0  0  0  0  0
    4.8377    8.7278    4.1818 C   0  0  0  0  0  2  0  0  0  0  0  0
    4.9269   10.7528    5.6221 C   0  0  0  0  0  3  0  0  0  0  0  0
    3.8519   11.8094    5.6817 C   0  0  0  0  0  0  0  0  0  0  0  0
    4.2070   13.0427    4.8970 C   0  0  0  0  0  0  0  0  0  0  0  0
    5.6426   13.4624    5.0699 C   0  0  0  0  0  0  0  0  0  0  0  0
    5.6794   14.9800    5.0354 C   0  0  0  0  0  0  0  0  0  0  0  0
    6.9529   15.4661    4.4002 C   0  0  0  0  0  2  0  0  0  0  0  0
    4.4857   15.4606    4.2224 C   0  0  0  0  0  2  0  0  0  0  0  0
    5.5560   15.5141    6.3035 O   0  0  0  0  0  0  0  0  0  0  0  0
    6.7199   16.0632    6.7974 C   0  0  2  0  0  0  0  0  0  0  0  0
    7.9981   15.3465    6.8186 C   0  0  0  0  0  3  0  0  0  0  0  0
    7.1278   15.1435    7.9906 C   0  0  0  0  0  3  0  0  0  0  0  0
    7.1761   16.0345    9.1924 C   0  0  0  0  0  0  0  0  0  0  0  0
    7.3927   15.2072   10.4323 C   0  0  2  0  0  0  0  0  0  0  0  0
    7.2126   13.7398   10.1065 C   0  0  0  0  0  2  0  0  0  0  0  0
  1  2  1  0
  2  3  1  1
  2  4  1  0
  4  5  1  0
  5  6  1  0
  6  7  1  0
  7  8  1  1
  7  9  1  0
  9 10  1  0
 10 11  1  0
 11 12  1  0
 12 13  1  0
 12 14  1  0
 14 15  1  0
 15 16  1  0
 16 17  1  0
 17 18  1  6
 17 19  1  0
 19 20  1  0
 20 21  1  0
 21 22  1  0
 22 23  1  0
 23 24  1  0
 23 25  1  0
 23 26  1  0
 26 27  1  0
 27 28  1  6
 28 29  1  0
 29 30  1  0
 30 31  1  0
 31 32  1  6
 31  1  1  0
 29 27  1  0
M  RAD  8   9   2  11   2  12   2  13   3  14   2  15   2  18   3  19   2
M  RAD  5  24   3  25   3  28   2  29   2  32   3
M  END
>  <docking_score>  (3) 
-2.653

$$$$
