
     RDKit          3D

 24 24  0  0  0  0  0  0  0  0999 V2000
   16.7317   -1.6966   -5.1841 C   0  0  0  0  0  0  0  0  0  0  0  0
   17.6824   -2.7499   -4.6886 C   0  0  1  0  0  0  0  0  0  0  0  0
   19.1106   -2.3422   -4.7907 C   0  0  0  0  0  0  0  0  0  0  0  0
   19.6952   -2.2571   -3.3740 C   0  0  2  0  0  0  0  0  0  0  0  0
   19.7734   -3.5655   -2.9118 O   0  0  0  0  0  0  0  0  0  0  0  0
   18.7691   -1.3955   -2.5447 C   0  0  2  0  0  0  0  0  0  0  0  0
   19.3822   -0.9426   -1.3724 O   0  0  0  0  0  0  0  0  0  0  0  0
   17.5163   -2.1643   -2.2423 C   0  0  1  0  0  0  0  0  0  0  0  0
   16.4414   -1.3212   -2.1498 O   0  0  0  0  0  0  0  0  0  0  0  0
   17.3408   -3.2016   -3.2868 C   0  0  1  0  0  0  0  0  0  0  0  0
   16.0628   -3.8442   -3.2261 N   0  0  0  0  0  0  0  0  0  0  0  0
   16.2678   -5.2400   -2.9725 C   0  0  2  0  0  0  0  0  0  0  0  0
   17.5914   -5.4857   -2.8018 O   0  0  0  0  0  0  0  0  0  0  0  0
   15.6811   -6.0191   -4.1263 C   0  0  0  0  0  3  0  0  0  0  0  0
   14.9154   -5.2044   -4.9832 O   0  0  0  0  0  0  0  0  0  0  0  0
   15.3707   -5.3890   -6.2853 O   0  0  0  0  0  0  0  0  0  0  0  0
   16.3456   -6.2094   -6.1152 O   0  0  0  0  0  0  0  0  0  0  0  0
   17.1048   -6.4582   -7.2789 C   0  0  1  0  0  0  0  0  0  0  0  0
   17.8914   -5.2736   -7.5404 O   0  0  0  0  0  0  0  0  0  0  0  0
   18.3625   -7.3494   -6.5156 C   0  0  2  0  0  0  0  0  0  0  0  0
   19.2765   -7.3625   -7.6409 O   0  0  0  0  0  0  0  0  0  0  0  0
   17.7321   -8.7511   -6.7104 C   0  0  0  0  0  0  0  0  0  0  0  0
   18.2707   -9.4676   -7.7133 O   0  0  0  0  0  0  0  0  0  0  0  0
   17.0122   -9.2642   -5.6980 O   0  0  0  0  0  0  0  0  0  0  0  0
  2  1  1  1
  2  3  1  0
  3  4  1  0
  4  5  1  1
  4  6  1  0
  6  7  1  1
  6  8  1  0
  8  9  1  6
  8 10  1  0
 10 11  1  6
 11 12  1  0
 12 13  1  6
 12 14  1  0
 14 15  1  0
 15 16  1  0
 16 17  1  0
 17 18  1  0
 18 19  1  1
 18 20  1  0
 20 21  1  6
 20 22  1  0
 22 23  1  0
 22 24  1  0
 10  2  1  0
M  RAD  1  14   2
M  END
>  <docking_score>  (1) 
-3.8610000000000002

$$$$

     RDKit          3D

 24 24  0  0  0  0  0  0  0  0999 V2000
   16.0023   -6.7797   -4.8816 C   0  0  0  0  0  0  0  0  0  0  0  0
   17.2819   -5.9964   -4.7931 C   0  0  1  0  0  0  0  0  0  0  0  0
   18.3227   -6.6693   -3.9683 C   0  0  0  0  0  0  0  0  0  0  0  0
   19.5117   -7.0180   -4.8743 C   0  0  2  0  0  0  0  0  0  0  0  0
   20.1080   -5.8078   -5.2080 O   0  0  0  0  0  0  0  0  0  0  0  0
   18.9720   -7.7585   -6.0777 C   0  0  2  0  0  0  0  0  0  0  0  0
   19.9768   -8.4457   -6.7658 O   0  0  0  0  0  0  0  0  0  0  0  0
   18.2605   -6.7901   -6.9765 C   0  0  1  0  0  0  0  0  0  0  0  0
   17.2254   -7.4055   -7.6282 O   0  0  0  0  0  0  0  0  0  0  0  0
   17.8160   -5.6350   -6.1605 C   0  0  1  0  0  0  0  0  0  0  0  0
   16.9318   -4.7591   -6.8682 N   0  0  0  0  0  0  0  0  0  0  0  0
   17.7204   -3.8335   -7.6271 C   0  0  2  0  0  0  0  0  0  0  0  0
   18.9661   -3.7488   -7.0957 O   0  0  0  0  0  0  0  0  0  0  0  0
   17.0056   -2.5025   -7.6355 C   0  0  0  0  0  3  0  0  0  0  0  0
   17.5718   -1.5892   -6.7248 O   0  0  0  0  0  0  0  0  0  0  0  0
   16.8736   -1.6783   -5.5241 O   0  0  0  0  0  0  0  0  0  0  0  0
   17.7952   -1.4434   -4.6594 O   0  0  0  0  0  0  0  0  0  0  0  0
   18.2393   -2.5859   -3.9594 C   0  0  1  0  0  0  0  0  0  0  0  0
   19.6835   -2.5963   -4.0254 O   0  0  0  0  0  0  0  0  0  0  0  0
   18.1319   -1.9126   -2.3802 C   0  0  2  0  0  0  0  0  0  0  0  0
   18.8128   -2.9869   -1.6845 O   0  0  0  0  0  0  0  0  0  0  0  0
   16.6701   -2.3429   -2.1012 C   0  0  0  0  0  0  0  0  0  0  0  0
   15.7898   -1.3267   -2.0636 O   0  0  0  0  0  0  0  0  0  0  0  0
   16.3475   -3.6344   -2.2863 O   0  0  0  0  0  0  0  0  0  0  0  0
  2  1  1  6
  2  3  1  0
  3  4  1  0
  4  5  1  6
  4  6  1  0
  6  7  1  6
  6  8  1  0
  8  9  1  1
  8 10  1  0
 10 11  1  6
 11 12  1  0
 12 13  1  1
 12 14  1  0
 14 15  1  0
 15 16  1  0
 16 17  1  0
 17 18  1  0
 18 19  1  6
 18 20  1  0
 20 21  1  1
 20 22  1  0
 22 23  1  0
 22 24  1  0
 10  2  1  0
M  RAD  1  14   2
M  END
>  <docking_score>  (2) 
-3.2599999999999998

$$$$

     RDKit          3D

 24 24  0  0  0  0  0  0  0  0999 V2000
   16.8064   -5.5922   -3.1699 C   0  0  0  0  0  0  0  0  0  0  0  0
   17.2731   -5.6622   -4.5968 C   0  0  1  0  0  0  0  0  0  0  0  0
   18.4667   -6.5332   -4.7788 C   0  0  0  0  0  0  0  0  0  0  0  0
   18.0720   -7.7203   -5.6684 C   0  0  2  0  0  0  0  0  0  0  0  0
   17.8676   -7.1963   -6.9393 O   0  0  0  0  0  0  0  0  0  0  0  0
   16.8239   -8.3408   -5.0811 C   0  0  2  0  0  0  0  0  0  0  0  0
   16.5963   -9.6296   -5.5736 O   0  0  0  0  0  0  0  0  0  0  0  0
   15.6522   -7.4414   -5.3463 C   0  0  1  0  0  0  0  0  0  0  0  0
   14.7326   -7.5341   -4.3361 O   0  0  0  0  0  0  0  0  0  0  0  0
   16.1565   -6.0602   -5.5351 C   0  0  1  0  0  0  0  0  0  0  0  0
   15.1100   -5.0838   -5.5693 N   0  0  0  0  0  0  0  0  0  0  0  0
   15.1501   -4.4190   -6.8386 C   0  0  2  0  0  0  0  0  0  0  0  0
   15.4937   -5.3033   -7.8088 O   0  0  0  0  0  0  0  0  0  0  0  0
   16.1237   -3.2682   -6.7366 C   0  0  0  0  0  3  0  0  0  0  0  0
   15.4956   -2.0751   -6.3288 O   0  0  0  0  0  0  0  0  0  0  0  0
   16.4412   -1.2791   -5.6892 O   0  0  0  0  0  0  0  0  0  0  0  0
   16.9969   -2.1149   -4.8860 O   0  0  0  0  0  0  0  0  0  0  0  0
   17.3127   -1.5799   -3.6186 C   0  0  1  0  0  0  0  0  0  0  0  0
   16.4688   -2.2426   -2.6496 O   0  0  0  0  0  0  0  0  0  0  0  0
   18.7103   -2.5411   -3.3335 C   0  0  2  0  0  0  0  0  0  0  0  0
   18.8891   -2.1825   -1.9402 O   0  0  0  0  0  0  0  0  0  0  0  0
   19.7329   -1.5605   -3.9602 C   0  0  0  0  0  0  0  0  0  0  0  0
   20.2067   -1.9439   -5.1592 O   0  0  0  0  0  0  0  0  0  0  0  0
   19.7790   -0.3062   -3.4795 O   0  0  0  0  0  0  0  0  0  0  0  0
  2  1  1  1
  2  3  1  0
  3  4  1  0
  4  5  1  6
  4  6  1  0
  6  7  1  6
  6  8  1  0
  8  9  1  1
  8 10  1  0
 10 11  1  1
 11 12  1  0
 12 13  1  6
 12 14  1  0
 14 15  1  0
 15 16  1  0
 16 17  1  0
 17 18  1  0
 18 19  1  1
 18 20  1  0
 20 21  1  1
 20 22  1  0
 22 23  1  0
 22 24  1  0
 10  2  1  0
M  RAD  1  14   2
M  END
>  <docking_score>  (3) 
-3.2429999999999999

$$$$
