
     RDKit          3D

 28 27  0  0  0  0  0  0  0  0999 V2000
   15.9690   -0.7717   -0.6645 C   0  0  0  0  0  0  0  0  0  0  0  0
   15.5732   -1.4503   -1.9642 C   0  0  0  0  0  0  0  0  0  0  0  0
   14.9219   -0.4731   -2.9082 C   0  0  0  0  0  0  0  0  0  0  0  0
   16.8033   -2.0187   -2.6176 C   0  0  0  0  0  0  0  0  0  0  0  0
   16.5319   -2.1618   -4.1070 C   0  0  0  0  0  0  0  0  0  0  0  0
   15.1901   -2.8129   -4.3425 C   0  0  0  0  0  0  0  0  0  0  0  0
   14.8019   -2.5751   -5.7769 C   0  0  1  0  0  0  0  0  0  0  0  0
   15.5250   -1.3951   -6.3689 C   0  0  0  0  0  0  0  0  0  0  0  0
   15.0220   -3.8141   -6.6077 C   0  0  0  0  0  3  0  0  0  0  0  0
   15.5239   -3.3965   -7.9785 C   0  0  0  0  0  0  0  0  0  0  0  0
   16.6205   -4.3198   -8.4761 C   0  0  0  0  0  0  0  0  0  0  0  0
   16.1027   -5.7228   -8.7321 C   0  0  2  0  0  0  0  0  0  0  0  0
   14.6459   -5.7940   -8.2938 C   0  0  0  0  0  0  0  0  0  0  0  0
   16.8625   -6.6948   -7.8412 C   0  0  0  0  0  3  0  0  0  0  0  0
   16.3858   -6.5560   -6.4206 C   0  0  0  0  0  0  0  0  0  0  0  0
   17.0839   -7.4770   -5.4651 C   0  0  1  0  0  0  0  0  0  0  0  0
   18.0265   -8.4362   -6.1339 C   0  0  0  0  0  0  0  0  0  0  0  0
   17.6770   -6.7835   -4.2686 C   0  0  0  0  0  0  0  0  0  0  0  0
   18.2616   -5.4380   -4.6696 C   0  0  0  0  0  0  0  0  0  0  0  0
   19.3494   -5.0037   -3.7140 C   0  0  1  0  0  0  0  0  0  0  0  0
   20.2227   -6.0207   -3.3845 O   0  0  0  0  0  0  0  0  0  0  0  0
   20.0639   -3.7935   -4.2426 C   0  0  0  0  0  0  0  0  0  0  0  0
   19.6470   -3.6304   -5.6914 C   0  0  0  0  0  0  0  0  0  0  0  0
   20.1235   -2.2830   -6.2085 C   0  0  1  0  0  0  0  0  0  0  0  0
   19.8121   -2.2435   -7.6917 C   0  0  0  0  0  0  0  0  0  0  0  0
   19.4170   -1.2780   -5.5947 O   0  0  0  0  0  0  0  0  0  0  0  0
   19.7904   -0.6092   -4.4761 C   0  0  0  0  0  0  0  0  0  0  0  0
   20.1349   -0.0288   -3.4693 C   0  0  0  0  0  0  0  0  0  0  0  0
  1  2  1  0
  2  3  1  0
  2  4  1  0
  4  5  1  0
  5  6  1  0
  6  7  1  0
  7  8  1  6
  7  9  1  0
  9 10  1  0
 10 11  1  0
 11 12  1  0
 12 13  1  1
 12 14  1  0
 14 15  1  0
 15 16  1  0
 16 17  1  6
 16 18  1  0
 18 19  1  0
 19 20  1  0
 20 21  1  6
 20 22  1  0
 22 23  1  0
 23 24  1  0
 24 25  1  6
 24 26  1  0
 26 27  1  0
 27 28  3  0
M  RAD  2   9   2  14   2
M  END
>  <docking_score>  (1) 
-2.2919999999999998

$$$$

     RDKit          3D

 28 27  0  0  0  0  0  0  0  0999 V2000
    7.3787   12.8020    4.0629 C   0  0  0  0  0  0  0  0  0  0  0  0
    6.9599   12.0752    5.3289 C   0  0  0  0  0  0  0  0  0  0  0  0
    6.2892   13.0160    6.2961 C   0  0  0  0  0  0  0  0  0  0  0  0
    6.0002   10.9737    4.9701 C   0  0  0  0  0  0  0  0  0  0  0  0
    4.8940   11.5637    4.1093 C   0  0  0  0  0  0  0  0  0  0  0  0
    3.7942   12.1322    4.9736 C   0  0  0  0  0  0  0  0  0  0  0  0
    2.5089   11.4404    4.6074 C   0  0  1  0  0  0  0  0  0  0  0  0
    2.3081   11.3749    3.1171 C   0  0  0  0  0  0  0  0  0  0  0  0
    2.4434   10.0644    5.2208 C   0  0  0  0  0  3  0  0  0  0  0  0
    2.2857   10.2102    6.7240 C   0  0  0  0  0  0  0  0  0  0  0  0
    3.2245   11.2626    7.2839 C   0  0  0  0  0  0  0  0  0  0  0  0
    2.5107   12.2072    8.2327 C   0  0  2  0  0  0  0  0  0  0  0  0
    3.4413   13.3677    8.5594 C   0  0  0  0  0  0  0  0  0  0  0  0
    2.2579   11.4822    9.5466 C   0  0  0  0  0  3  0  0  0  0  0  0
    3.4959   11.5378   10.4003 C   0  0  0  0  0  0  0  0  0  0  0  0
    3.7263   12.8796   11.0289 C   0  0  1  0  0  0  0  0  0  0  0  0
    3.1313   13.0114   12.4016 C   0  0  0  0  0  0  0  0  0  0  0  0
    5.1489   13.3619   10.9389 C   0  0  0  0  0  0  0  0  0  0  0  0
    5.7187   13.5996   12.3288 C   0  0  0  0  0  0  0  0  0  0  0  0
    6.6522   12.4838   12.7392 C   0  0  1  0  0  0  0  0  0  0  0  0
    6.4525   11.3175   12.0283 O   0  0  0  0  0  0  0  0  0  0  0  0
    8.0806   12.9433   12.6828 C   0  0  0  0  0  0  0  0  0  0  0  0
    8.0573   14.4235   12.3546 C   0  0  0  0  0  0  0  0  0  0  0  0
    8.8897   14.6807   11.1091 C   0  0  1  0  0  0  0  0  0  0  0  0
    8.4800   16.0398   10.5767 C   0  0  0  0  0  0  0  0  0  0  0  0
   10.2196   14.7353   11.4471 O   0  0  0  0  0  0  0  0  0  0  0  0
   10.7458   15.3924   12.5100 C   0  0  0  0  0  0  0  0  0  0  0  0
   11.2001   15.9940   13.4591 C   0  0  0  0  0  0  0  0  0  0  0  0
  1  2  1  0
  2  3  1  0
  2  4  1  0
  4  5  1  0
  5  6  1  0
  6  7  1  0
  7  8  1  6
  7  9  1  0
  9 10  1  0
 10 11  1  0
 11 12  1  0
 12 13  1  1
 12 14  1  0
 14 15  1  0
 15 16  1  0
 16 17  1  1
 16 18  1  0
 18 19  1  0
 19 20  1  0
 20 21  1  6
 20 22  1  0
 22 23  1  0
 23 24  1  0
 24 25  1  1
 24 26  1  0
 26 27  1  0
 27 28  3  0
M  RAD  2   9   2  14   2
M  END
>  <docking_score>  (2) 
-0.30299999999999999

$$$$
