
     RDKit          3D

 34 34  0  0  0  0  0  0  0  0999 V2000
   18.5322   -1.9005   -7.9864 C   0  0  0  0  0  0  0  0  0  0  0  0
   19.9188   -2.0052   -7.3922 C   0  0  0  0  0  0  0  0  0  0  0  0
   20.8379   -1.0170   -8.0727 C   0  0  0  0  0  0  0  0  0  0  0  0
   19.7918   -1.7179   -5.9118 C   0  0  0  0  0  0  0  0  0  0  0  0
   21.0459   -2.1409   -5.1611 C   0  0  0  0  0  0  0  0  0  0  0  0
   21.2881   -1.2555   -3.9601 C   0  0  0  0  0  0  0  0  0  0  0  0
   20.3758   -1.7523   -2.8518 C   0  0  1  0  0  0  0  0  0  0  0  0
   20.9322   -3.0727   -2.3800 C   0  0  0  0  0  0  0  0  0  0  0  0
   20.2581   -0.7439   -1.7378 C   0  0  0  0  0  3  0  0  0  0  0  0
   18.8544   -0.6281   -1.2055 C   0  0  0  0  0  0  0  0  0  0  0  0
   17.8252   -1.1793   -2.1541 C   0  0  0  0  0  0  0  0  0  0  0  0
   16.4445   -1.2264   -1.5425 C   0  0  1  0  0  0  0  0  0  0  0  0
   15.4784   -0.7692   -2.6404 C   0  0  0  0  0  0  0  0  0  0  0  0
   16.0851   -2.6907   -1.2688 C   0  0  0  0  0  0  0  0  0  0  0  0
   16.4777   -3.5655   -2.4224 C   0  0  1  0  0  0  0  0  0  0  0  0
   17.0916   -4.8614   -1.9011 C   0  0  1  0  0  0  0  0  0  0  0  0
   16.1719   -5.6068   -0.9898 C   0  0  0  0  0  0  0  0  0  0  0  0
   17.4206   -5.7146   -3.0867 C   0  0  0  0  0  0  0  0  0  0  0  0
   18.1525   -4.8737   -4.1221 C   0  0  0  0  0  0  0  0  0  0  0  0
   19.6042   -5.3530   -4.2000 C   0  0  0  0  0  0  0  0  0  0  0  0
   19.5631   -6.8637   -4.0636 C   0  0  0  0  0  0  0  0  0  0  0  0
   20.9286   -7.4434   -4.1831 C   0  0  0  0  0  0  0  0  0  0  0  0
   21.2733   -8.1485   -5.2546 C   0  0  0  0  0  0  0  0  0  0  0  0
   20.3491   -8.3984   -6.3708 C   0  0  0  0  0  0  0  0  0  0  0  0
   20.1260   -7.1858   -7.2334 C   0  0  0  0  0  0  0  0  0  0  0  0
   18.7853   -7.3031   -7.8571 C   0  0  0  0  0  0  0  0  0  0  0  0
   18.0362   -6.2326   -8.1113 C   0  0  0  0  0  0  0  0  0  0  0  0
   16.6992   -6.4036   -8.7376 C   0  0  0  0  0  0  0  0  0  0  0  0
   15.8401   -5.1817   -8.5886 C   0  0  0  0  0  0  0  0  0  0  0  0
   16.3530   -4.3851   -7.4190 C   0  0  0  0  0  0  0  0  0  0  0  0
   14.9683   -3.6171   -6.5147 S   0  0  0  0  0  0  0  0  0  0  0  0
   15.6537   -2.8679   -5.0082 C   0  0  0  0  0  0  0  0  0  0  0  0
   16.0127   -3.4269   -3.8220 S   0  0  2  0  0  0  0  0  0  0  0  0
   14.3708   -5.1693   -3.7851 F   0  0  0  0  0  0  0  0  0  0  0  0
  1  2  1  0
  2  3  1  0
  2  4  1  0
  4  5  1  0
  5  6  1  0
  6  7  1  0
  7  8  1  1
  7  9  1  0
  9 10  1  0
 10 11  1  0
 11 12  1  0
 12 13  1  6
 12 14  1  0
 15 14  1  1
 15 16  1  0
 16 17  1  1
 16 18  1  0
 18 19  1  0
 19 20  1  0
 20 21  1  0
 21 22  1  0
 22 23  2  3
 23 24  1  0
 24 25  1  0
 25 26  1  0
 26 27  2  3
 27 28  1  0
 28 29  1  0
 29 30  1  0
 30 31  1  0
 31 32  1  0
 32 33  1  0
 33 34  1  0
 33 15  1  0
M  RAD  1   9   2
M  END
>  <docking_score>  (1) 
-1.456

$$$$
