
     RDKit          3D

 21 20  0  0  0  0  0  0  0  0999 V2000
   13.6392    0.2536   -4.3282 C   0  0  0  0  0  0  0  0  0  0  0  0
   14.6258   -0.8509   -4.6350 C   0  0  0  0  0  0  0  0  0  0  0  0
   15.5801   -0.4298   -5.7320 C   0  0  0  0  0  0  0  0  0  0  0  0
   13.8382   -2.0706   -5.1058 C   0  0  0  0  0  0  0  0  0  0  0  0
   14.7640   -3.2592   -4.9548 C   0  0  0  0  0  0  0  0  0  0  0  0
   14.6935   -4.1122   -6.2110 C   0  0  0  0  0  0  0  0  0  0  0  0
   15.3935   -5.4231   -5.9041 C   0  0  1  0  0  0  0  0  0  0  0  0
   14.3955   -6.3595   -5.2576 C   0  0  0  0  0  0  0  0  0  0  0  0
   15.8664   -6.0736   -7.1870 C   0  0  0  0  0  3  0  0  0  0  0  0
   17.3426   -6.3831   -7.0240 C   0  0  0  0  0  3  0  0  0  0  0  0
   17.5081   -7.8408   -6.6576 C   0  0  0  0  0  0  0  0  0  0  0  0
   18.5445   -7.9119   -5.5509 C   0  0  1  0  0  0  0  0  0  0  0  0
   19.9108   -8.2518   -6.1469 C   0  0  0  0  0  0  0  0  0  0  0  0
   18.6223   -6.5630   -4.8667 C   0  0  0  0  0  3  0  0  0  0  0  0
   18.7200   -6.7735   -3.3731 C   0  0  0  0  0  0  0  0  0  0  0  0
   18.5448   -5.4720   -2.6933 C   0  0  1  0  0  0  0  0  0  0  0  0
   19.8157   -4.6512   -2.6264 C   0  0  0  0  0  0  0  0  0  0  0  0
   17.3416   -4.7009   -2.9878 C   0  0  0  0  0  0  0  0  0  0  0  0
   16.9093   -3.7242   -2.0209 C   0  0  0  0  0  0  0  0  0  0  0  0
   17.0354   -2.2867   -2.1983 C   0  0  0  0  0  0  0  0  0  0  0  0
   15.9692   -1.5351   -1.8123 F   0  0  0  0  0  0  0  0  0  0  0  0
  1  2  1  0
  2  3  1  0
  2  4  1  0
  4  5  1  0
  5  6  1  0
  6  7  1  0
  7  8  1  6
  7  9  1  0
  9 10  1  0
 10 11  1  0
 11 12  1  0
 12 13  1  6
 12 14  1  0
 14 15  1  0
 15 16  1  0
 16 17  1  6
 16 18  1  0
 18 19  1  0
 19 20  1  0
 20 21  1  0
M  RAD  3   9   2  10   2  14   2
M  END
>  <docking_score>  (1) 
-3.8759999999999999

$$$$

     RDKit          3D

 21 20  0  0  0  0  0  0  0  0999 V2000
   15.7501   -2.1019   -4.1168 C   0  0  0  0  0  0  0  0  0  0  0  0
   16.6568   -2.2841   -2.9200 C   0  0  0  0  0  0  0  0  0  0  0  0
   16.1272   -1.5230   -1.7235 C   0  0  0  0  0  0  0  0  0  0  0  0
   18.0347   -1.7375   -3.2837 C   0  0  0  0  0  0  0  0  0  0  0  0
   19.0104   -2.8786   -3.0875 C   0  0  0  0  0  0  0  0  0  0  0  0
   19.7669   -3.1196   -4.3838 C   0  0  0  0  0  0  0  0  0  0  0  0
   19.3399   -4.4783   -4.9075 C   0  0  1  0  0  0  0  0  0  0  0  0
   20.0168   -4.7125   -6.2408 C   0  0  0  0  0  0  0  0  0  0  0  0
   19.8005   -5.5684   -3.9630 C   0  0  0  0  0  3  0  0  0  0  0  0
   18.5747   -6.3606   -3.5487 C   0  0  0  0  0  3  0  0  0  0  0  0
   18.4586   -7.5905   -4.4206 C   0  0  0  0  0  0  0  0  0  0  0  0
   17.5023   -7.2529   -5.5501 C   0  0  1  0  0  0  0  0  0  0  0  0
   17.5210   -8.3722   -6.5914 C   0  0  0  0  0  0  0  0  0  0  0  0
   16.1035   -7.1238   -4.9841 C   0  0  0  0  0  3  0  0  0  0  0  0
   15.6452   -5.6905   -5.1268 C   0  0  0  0  0  0  0  0  0  0  0  0
   14.7461   -5.5892   -6.2964 C   0  0  1  0  0  0  0  0  0  0  0  0
   13.3866   -5.0113   -5.9632 C   0  0  0  0  0  0  0  0  0  0  0  0
   15.3110   -5.1187   -7.5569 C   0  0  0  0  0  0  0  0  0  0  0  0
   16.4199   -4.2005   -7.5015 C   0  0  0  0  0  0  0  0  0  0  0  0
   16.2963   -2.7595   -7.6497 C   0  0  0  0  0  0  0  0  0  0  0  0
   15.0352   -2.2753   -7.8107 F   0  0  0  0  0  0  0  0  0  0  0  0
  1  2  1  0
  2  3  1  0
  2  4  1  0
  4  5  1  0
  5  6  1  0
  6  7  1  0
  7  8  1  6
  7  9  1  0
  9 10  1  0
 10 11  1  0
 11 12  1  0
 12 13  1  6
 12 14  1  0
 14 15  1  0
 15 16  1  0
 16 17  1  1
 16 18  1  0
 18 19  1  0
 19 20  1  0
 20 21  1  0
M  RAD  3   9   2  10   2  14   2
M  END
>  <docking_score>  (2) 
-3.3879999999999999

$$$$

     RDKit          3D

 21 20  0  0  0  0  0  0  0  0999 V2000
   17.1999   -6.4748   -7.4670 C   0  0  0  0  0  0  0  0  0  0  0  0
   18.4338   -7.3217   -7.6859 C   0  0  0  0  0  0  0  0  0  0  0  0
   18.1004   -8.7946   -7.5811 C   0  0  0  0  0  0  0  0  0  0  0  0
   19.4490   -6.9660   -6.6031 C   0  0  0  0  0  0  0  0  0  0  0  0
   18.6696   -6.8534   -5.3098 C   0  0  0  0  0  0  0  0  0  0  0  0
   19.6178   -7.0362   -4.1358 C   0  0  0  0  0  0  0  0  0  0  0  0
   19.6453   -5.7252   -3.3720 C   0  0  1  0  0  0  0  0  0  0  0  0
   20.8641   -4.9413   -3.8091 C   0  0  0  0  0  0  0  0  0  0  0  0
   18.4234   -4.8984   -3.7128 C   0  0  0  0  0  3  0  0  0  0  0  0
   17.4794   -4.9701   -2.5272 C   0  0  0  0  0  3  0  0  0  0  0  0
   16.1982   -4.2421   -2.8663 C   0  0  0  0  0  0  0  0  0  0  0  0
   15.8852   -4.5361   -4.3222 C   0  0  1  0  0  0  0  0  0  0  0  0
   15.1256   -5.8587   -4.4279 C   0  0  0  0  0  0  0  0  0  0  0  0
   15.0201   -3.4207   -4.8710 C   0  0  0  0  0  3  0  0  0  0  0  0
   15.5400   -3.0190   -6.2323 C   0  0  0  0  0  0  0  0  0  0  0  0
   15.7558   -1.5562   -6.2501 C   0  0  1  0  0  0  0  0  0  0  0  0
   14.6019   -0.7696   -5.6644 C   0  0  0  0  0  0  0  0  0  0  0  0
   17.0767   -1.0534   -5.8871 C   0  0  0  0  0  0  0  0  0  0  0  0
   18.1761   -1.9845   -5.8747 C   0  0  0  0  0  0  0  0  0  0  0  0
   19.4310   -1.7584   -5.1762 C   0  0  0  0  0  0  0  0  0  0  0  0
   20.5566   -2.2006   -5.7992 F   0  0  0  0  0  0  0  0  0  0  0  0
  1  2  1  0
  2  3  1  0
  2  4  1  0
  4  5  1  0
  5  6  1  0
  6  7  1  0
  7  8  1  6
  7  9  1  0
  9 10  1  0
 10 11  1  0
 11 12  1  0
 12 13  1  1
 12 14  1  0
 14 15  1  0
 15 16  1  0
 16 17  1  1
 16 18  1  0
 18 19  1  0
 19 20  1  0
 20 21  1  0
M  RAD  3   9   2  10   2  14   2
M  END
>  <docking_score>  (3) 
-3.1309999999999998

$$$$
