
     RDKit          3D

 30 33  0  0  0  0  0  0  0  0999 V2000
    2.3499    7.2382    2.3313 C   0  0  0  0  0  0  0  0  0  0  0  0
    3.2929    6.7320    3.2942 O   0  0  0  0  0  0  0  0  0  0  0  0
    3.5404    7.6018    4.4167 C   0  0  0  0  0  0  0  0  0  0  0  0
    4.8201    8.0821    4.3697 C   0  0  0  0  0  0  0  0  0  0  0  0
    5.2087    9.0124    5.4814 C   0  0  0  0  0  0  0  0  0  0  0  0
    5.7937   10.0780    5.0979 C   0  0  0  0  0  0  0  0  0  0  0  0
    6.2890   11.1829    5.9721 C   0  0  0  0  0  0  0  0  0  0  0  0
    6.3267   12.5322    5.4008 C   0  0  0  0  0  0  0  0  0  0  0  0
    5.2372   13.2897    6.0615 C   0  0  2  0  0  0  0  0  0  0  0  0
    5.2536   13.3554    7.5086 C   0  0  0  0  0  0  0  0  0  0  0  0
    4.7176   12.2435    8.2481 C   0  0  0  0  0  0  0  0  0  0  0  0
    4.6461   12.3097    9.6190 C   0  0  0  0  0  0  0  0  0  0  0  0
    5.0887   13.4455   10.3640 C   0  0  0  0  0  0  0  0  0  0  0  0
    5.0488   13.5507   11.7292 O   0  0  0  0  0  0  0  0  0  0  0  0
    5.5840   14.4469    9.5754 C   0  0  0  0  0  0  0  0  0  0  0  0
    5.6626   14.4107    8.2249 C   0  0  0  0  0  0  0  0  0  0  0  0
    6.2390   15.6248    7.5394 C   0  0  0  0  0  0  0  0  0  0  0  0
    3.8854   12.6403    5.6615 N   0  0  0  0  0  0  0  0  0  0  0  0
    3.6872   12.2843    4.3481 C   0  0  0  0  0  0  0  0  0  0  0  0
    4.6477   12.4930    3.4805 N   0  0  0  0  0  0  0  0  0  0  0  0
    5.6331   12.2951    2.7361 C   0  0  0  0  0  0  0  0  0  0  0  0
    6.0083   13.6530    2.0103 C   0  0  2  0  0  0  0  0  0  0  0  0
    7.1549   13.2914    1.0593 C   0  0  0  0  0  0  0  0  0  0  0  0
    6.8932   14.1514    3.3672 C   0  0  0  0  0  0  0  0  0  0  0  0
    7.0744   15.3856    3.2722 C   0  0  0  0  0  0  0  0  0  0  0  0
    5.9316   10.1676    3.4834 C   0  0  0  0  0  0  0  0  0  0  0  0
    6.5412   11.1870    2.9315 C   0  0  0  0  0  0  0  0  0  0  0  0
    8.0398   11.3427    2.8260 N   0  0  0  0  0  0  0  0  0  0  0  0
    8.4321   12.3738    3.9915 C   0  0  0  0  0  0  0  0  0  0  0  0
    7.2232   13.0709    4.3265 C   0  0  0  0  0  0  0  0  0  0  0  0
  1  2  1  0
  2  3  1  0
  3  4  2  3
  4  5  1  0
  5  6  2  3
  6  7  1  0
  7  8  2  3
  8  9  1  0
  9 10  1  1
 10 11  2  0
 11 12  1  0
 12 13  2  0
 13 14  1  0
 13 15  1  0
 15 16  2  0
 16 17  1  0
  9 18  1  0
 18 19  2  3
 19 20  1  0
 20 21  2  3
 21 22  1  0
 22 23  1  6
 22 24  1  0
 24 25  2  0
  6 26  1  0
 26 27  2  3
 27 28  1  0
 28 29  1  0
 29 30  2  0
 30  8  1  0
 16 10  1  0
 27 21  1  0
 30 24  1  0
M  END
>  <docking_score>  (1) 
-4.8659999999999997

$$$$

     RDKit          3D

 30 33  0  0  0  0  0  0  0  0999 V2000
   19.7560    2.3698   -5.7319 C   0  0  0  0  0  0  0  0  0  0  0  0
   20.8843    1.9594   -4.9375 O   0  0  0  0  0  0  0  0  0  0  0  0
   20.7389    0.6782   -4.2929 C   0  0  0  0  0  0  0  0  0  0  0  0
   20.3653   -0.2702   -5.2046 C   0  0  0  0  0  0  0  0  0  0  0  0
   20.1866   -1.6591   -4.6648 C   0  0  0  0  0  0  0  0  0  0  0  0
   19.1458   -2.2605   -5.0888 C   0  0  0  0  0  0  0  0  0  0  0  0
   18.7116   -3.6438   -4.7305 C   0  0  0  0  0  0  0  0  0  0  0  0
   17.9335   -4.3874   -5.7255 C   0  0  0  0  0  0  0  0  0  0  0  0
   18.8358   -5.4394   -6.2515 C   0  0  2  0  0  0  0  0  0  0  0  0
   19.4281   -6.3499   -5.2930 C   0  0  0  0  0  0  0  0  0  0  0  0
   20.3871   -5.8260   -4.3568 C   0  0  0  0  0  0  0  0  0  0  0  0
   21.0253   -6.6786   -3.4882 C   0  0  0  0  0  0  0  0  0  0  0  0
   20.7788   -8.0855   -3.4622 C   0  0  0  0  0  0  0  0  0  0  0  0
   21.3805   -8.9705   -2.6070 O   0  0  0  0  0  0  0  0  0  0  0  0
   19.8516   -8.4867   -4.3837 C   0  0  0  0  0  0  0  0  0  0  0  0
   19.2113   -7.6710   -5.2532 C   0  0  0  0  0  0  0  0  0  0  0  0
   18.2241   -8.3139   -6.1957 C   0  0  0  0  0  0  0  0  0  0  0  0
   20.0113   -4.7437   -6.9885 N   0  0  0  0  0  0  0  0  0  0  0  0
   19.7337   -3.6877   -7.8246 C   0  0  0  0  0  0  0  0  0  0  0  0
   18.4903   -3.2957   -7.9629 N   0  0  0  0  0  0  0  0  0  0  0  0
   17.4304   -2.6487   -7.8138 C   0  0  0  0  0  0  0  0  0  0  0  0
   16.3048   -3.2918   -8.7254 C   0  0  2  0  0  0  0  0  0  0  0  0
   15.0829   -2.3831   -8.5482 C   0  0  0  0  0  0  0  0  0  0  0  0
   15.9849   -4.4557   -7.5357 C   0  0  0  0  0  0  0  0  0  0  0  0
   15.3390   -5.3827   -8.0727 C   0  0  0  0  0  0  0  0  0  0  0  0
   18.2965   -1.3682   -6.1453 C   0  0  0  0  0  0  0  0  0  0  0  0
   17.1792   -1.8314   -6.6478 C   0  0  0  0  0  0  0  0  0  0  0  0
   15.8455   -1.8236   -5.9392 N   0  0  0  0  0  0  0  0  0  0  0  0
   15.6499   -3.3252   -5.4079 C   0  0  0  0  0  0  0  0  0  0  0  0
   16.5308   -4.1409   -6.1941 C   0  0  0  0  0  0  0  0  0  0  0  0
  1  2  1  0
  2  3  1  0
  3  4  2  3
  4  5  1  0
  5  6  2  3
  6  7  1  0
  7  8  2  3
  8  9  1  0
  9 10  1  1
 10 11  2  0
 11 12  1  0
 12 13  2  0
 13 14  1  0
 13 15  1  0
 15 16  2  0
 16 17  1  0
  9 18  1  0
 18 19  2  3
 19 20  1  0
 20 21  2  3
 21 22  1  0
 22 23  1  1
 22 24  1  0
 24 25  2  0
  6 26  1  0
 26 27  2  3
 27 28  1  0
 28 29  1  0
 29 30  2  0
 30  8  1  0
 16 10  1  0
 27 21  1  0
 30 24  1  0
M  END
>  <docking_score>  (2) 
-4.0570000000000004

$$$$

     RDKit          3D

 30 33  0  0  0  0  0  0  0  0999 V2000
   12.9156   -5.5779   -8.1579 C   0  0  0  0  0  0  0  0  0  0  0  0
   13.6690   -4.4171   -8.5547 O   0  0  0  0  0  0  0  0  0  0  0  0
   14.7316   -4.0460   -7.6539 C   0  0  0  0  0  0  0  0  0  0  0  0
   14.3654   -4.2992   -6.3608 C   0  0  0  0  0  0  0  0  0  0  0  0
   15.3894   -3.9652   -5.3157 C   0  0  0  0  0  0  0  0  0  0  0  0
   16.3753   -4.7716   -5.2657 C   0  0  0  0  0  0  0  0  0  0  0  0
   17.5413   -4.6921   -4.3359 C   0  0  0  0  0  0  0  0  0  0  0  0
   18.8168   -5.2435   -4.8020 C   0  0  0  0  0  0  0  0  0  0  0  0
   19.6971   -4.0800   -5.0644 C   0  0  2  0  0  0  0  0  0  0  0  0
   19.9184   -3.1523   -3.9739 C   0  0  0  0  0  0  0  0  0  0  0  0
   19.7857   -1.7442   -4.2385 C   0  0  0  0  0  0  0  0  0  0  0  0
   20.0669   -0.8363   -3.2458 C   0  0  0  0  0  0  0  0  0  0  0  0
   20.4884   -1.2248   -1.9372 C   0  0  0  0  0  0  0  0  0  0  0  0
   20.7668   -0.3572   -0.9143 O   0  0  0  0  0  0  0  0  0  0  0  0
   20.5813   -2.5802   -1.7818 C   0  0  0  0  0  0  0  0  0  0  0  0
   20.3151   -3.4962   -2.7416 C   0  0  0  0  0  0  0  0  0  0  0  0
   20.4834   -4.9483   -2.3685 C   0  0  0  0  0  0  0  0  0  0  0  0
   19.0792   -3.2590   -6.2277 N   0  0  0  0  0  0  0  0  0  0  0  0
   18.5936   -3.9310   -7.3248 C   0  0  0  0  0  0  0  0  0  0  0  0
   18.6569   -5.2403   -7.3481 N   0  0  0  0  0  0  0  0  0  0  0  0
   18.3284   -6.4426   -7.2436 C   0  0  0  0  0  0  0  0  0  0  0  0
   19.5783   -7.3485   -7.6024 C   0  0  2  0  0  0  0  0  0  0  0  0
   19.0567   -8.7885   -7.5381 C   0  0  0  0  0  0  0  0  0  0  0  0
   20.1743   -7.1773   -6.0251 C   0  0  0  0  0  0  0  0  0  0  0  0
   21.3798   -7.5115   -6.0343 C   0  0  0  0  0  0  0  0  0  0  0  0
   16.2819   -5.9414   -6.3867 C   0  0  0  0  0  0  0  0  0  0  0  0
   17.2025   -6.8714   -6.4442 C   0  0  0  0  0  0  0  0  0  0  0  0
   17.2678   -8.0783   -5.5388 N   0  0  0  0  0  0  0  0  0  0  0  0
   18.3974   -7.7230   -4.4557 C   0  0  0  0  0  0  0  0  0  0  0  0
   19.1886   -6.6767   -5.0379 C   0  0  0  0  0  0  0  0  0  0  0  0
  1  2  1  0
  2  3  1  0
  3  4  2  3
  4  5  1  0
  5  6  2  3
  6  7  1  0
  7  8  2  3
  8  9  1  0
  9 10  1  1
 10 11  2  0
 11 12  1  0
 12 13  2  0
 13 14  1  0
 13 15  1  0
 15 16  2  0
 16 17  1  0
  9 18  1  0
 18 19  2  3
 19 20  1  0
 20 21  2  3
 21 22  1  0
 22 23  1  1
 22 24  1  0
 24 25  2  0
  6 26  1  0
 26 27  2  3
 27 28  1  0
 28 29  1  0
 29 30  2  0
 30  8  1  0
 16 10  1  0
 27 21  1  0
 30 24  1  0
M  END
>  <docking_score>  (3) 
-3.665

$$$$
