
     RDKit          3D

 20 21  0  0  0  0  0  0  0  0999 V2000
   10.7225   -1.4186   18.5556 C   0  0  0  0  0  0  0  0  0  0  0  0
    9.4078   -0.7139   18.8134 C   0  0  1  0  0  0  0  0  0  0  0  0
    8.5326   -0.7162   17.5762 C   0  0  0  0  0  0  0  0  0  0  0  0
    7.4258   -1.0085   18.5700 C   0  0  0  0  0  0  0  0  0  0  0  0
    8.4453   -1.6128   19.4254 N   0  0  0  0  0  0  0  0  0  0  0  0
    8.2433   -1.3904   20.8444 C   0  0  0  0  0  0  0  0  0  0  0  0
    8.4808   -2.5945   21.6452 C   0  0  0  0  0  0  0  0  0  0  0  0
    8.2624   -2.7243   22.9368 C   0  0  0  0  0  0  0  0  0  0  0  0
    7.7420   -1.6500   23.7470 C   0  0  0  0  0  0  0  0  0  0  0  0
    6.8555   -1.8697   24.7051 C   0  0  0  0  0  0  0  0  0  0  0  0
    6.0056   -1.4900   25.7445 C   0  0  0  0  0  0  0  0  0  0  0  0
    6.0491   -2.7986   25.4308 C   0  0  0  0  0  0  0  0  0  0  0  0
    5.6110   -4.2036   25.6438 C   0  0  0  0  0  0  0  0  0  0  0  0
    6.7090   -5.1320   25.3478 C   0  0  0  0  0  0  0  0  0  0  0  0
    6.5280   -6.4324   25.0433 C   0  0  0  0  0  0  0  0  0  0  0  0
    7.7148   -7.2944   24.7575 C   0  0  0  0  0  0  0  0  0  0  0  0
    8.6422   -6.5236   23.8398 C   0  0  0  0  0  0  0  0  0  0  0  0
   10.0298   -6.4530   24.4437 C   0  0  0  0  0  0  0  0  0  0  0  0
   11.0354   -5.8404   23.5053 C   0  0  0  0  0  0  0  0  0  0  0  0
   12.1964   -6.7189   23.4895 N   0  0  0  0  0  0  0  0  0  0  0  0
  2  1  1  6
  2  3  1  0
  3  4  1  0
  4  5  1  0
  5  6  1  0
  6  7  1  0
  7  8  2  3
  8  9  1  0
  9 10  2  3
 10 11  1  0
 11 12  2  0
 12 13  1  0
 13 14  1  0
 14 15  2  3
 15 16  1  0
 16 17  1  0
 17 18  1  0
 18 19  1  0
 19 20  1  0
  5  2  1  0
 12 10  1  0
M  END
>  <docking_score>  (1) 
-4.9509999999999996

$$$$

     RDKit          3D

 20 21  0  0  0  0  0  0  0  0999 V2000
    5.8590   -0.5959   25.6937 C   0  0  0  0  0  0  0  0  0  0  0  0
    6.3616    0.6679   25.0291 C   0  0  1  0  0  0  0  0  0  0  0  0
    7.0432    1.5797   26.0294 C   0  0  0  0  0  0  0  0  0  0  0  0
    8.0393    1.7834   24.9049 C   0  0  0  0  0  0  0  0  0  0  0  0
    7.6638    0.4559   24.4223 N   0  0  0  0  0  0  0  0  0  0  0  0
    7.6330    0.3319   22.9775 C   0  0  0  0  0  0  0  0  0  0  0  0
    8.6629   -0.5763   22.4655 C   0  0  0  0  0  0  0  0  0  0  0  0
    9.5163   -0.3167   21.4975 C   0  0  0  0  0  0  0  0  0  0  0  0
    9.5364    0.9457   20.7994 C   0  0  0  0  0  0  0  0  0  0  0  0
    9.1612    1.0452   19.5339 C   0  0  0  0  0  0  0  0  0  0  0  0
    8.9200    1.7311   18.3430 C   0  0  0  0  0  0  0  0  0  0  0  0
    8.6708    0.4081   18.3536 C   0  0  0  0  0  0  0  0  0  0  0  0
    8.2213   -0.8375   17.6767 C   0  0  0  0  0  0  0  0  0  0  0  0
    9.3305   -1.7941   17.5772 C   0  0  0  0  0  0  0  0  0  0  0  0
    9.6158   -2.7102   18.5235 C   0  0  0  0  0  0  0  0  0  0  0  0
   10.7690   -3.6398   18.3254 C   0  0  0  0  0  0  0  0  0  0  0  0
   11.6137   -3.1010   17.1886 C   0  0  0  0  0  0  0  0  0  0  0  0
   12.8164   -2.3629   17.7397 C   0  0  0  0  0  0  0  0  0  0  0  0
   13.9830   -2.3716   16.7879 C   0  0  0  0  0  0  0  0  0  0  0  0
   13.4447   -2.5935   15.4533 N   0  0  0  0  0  0  0  0  0  0  0  0
  2  1  1  1
  2  3  1  0
  3  4  1  0
  4  5  1  0
  5  6  1  0
  6  7  1  0
  7  8  2  3
  8  9  1  0
  9 10  2  3
 10 11  1  0
 11 12  2  0
 12 13  1  0
 13 14  1  0
 14 15  2  3
 15 16  1  0
 16 17  1  0
 17 18  1  0
 18 19  1  0
 19 20  1  0
  5  2  1  0
 12 10  1  0
M  END
>  <docking_score>  (2) 
-4.9039999999999999

$$$$

     RDKit          3D

 20 21  0  0  0  0  0  0  0  0999 V2000
    6.1271   -0.0384   25.4534 C   0  0  0  0  0  0  0  0  0  0  0  0
    6.7583    1.0209   24.5753 C   0  0  1  0  0  0  0  0  0  0  0  0
    7.6972    1.9049   25.3713 C   0  0  0  0  0  0  0  0  0  0  0  0
    8.5763    1.7834   24.1423 C   0  0  0  0  0  0  0  0  0  0  0  0
    7.9257    0.4998   23.8865 N   0  0  0  0  0  0  0  0  0  0  0  0
    7.7071    0.2100   22.4822 C   0  0  0  0  0  0  0  0  0  0  0  0
    8.3825   -1.0149   22.0455 C   0  0  0  0  0  0  0  0  0  0  0  0
    8.3895   -1.5053   20.8239 C   0  0  0  0  0  0  0  0  0  0  0  0
    7.7033   -0.8656   19.7278 C   0  0  0  0  0  0  0  0  0  0  0  0
    8.0678   -1.0630   18.4707 C   0  0  0  0  0  0  0  0  0  0  0  0
    7.9760   -0.8812   17.0903 C   0  0  0  0  0  0  0  0  0  0  0  0
    8.9431   -1.7024   17.5408 C   0  0  0  0  0  0  0  0  0  0  0  0
   10.0907   -2.6171   17.3002 C   0  0  0  0  0  0  0  0  0  0  0  0
   10.2538   -3.5407   18.4297 C   0  0  0  0  0  0  0  0  0  0  0  0
   10.9291   -3.2345   19.5552 C   0  0  0  0  0  0  0  0  0  0  0  0
   11.0369   -4.2476   20.6485 C   0  0  0  0  0  0  0  0  0  0  0  0
   11.9984   -3.7111   21.6897 C   0  0  0  0  0  0  0  0  0  0  0  0
   12.0249   -2.1972   21.6412 C   0  0  0  0  0  0  0  0  0  0  0  0
   12.9345   -1.6038   22.6840 C   0  0  0  0  0  0  0  0  0  0  0  0
   14.0294   -2.5431   22.8814 N   0  0  0  0  0  0  0  0  0  0  0  0
  2  1  1  1
  2  3  1  0
  3  4  1  0
  4  5  1  0
  5  6  1  0
  6  7  1  0
  7  8  2  3
  8  9  1  0
  9 10  2  3
 10 11  1  0
 11 12  2  0
 12 13  1  0
 13 14  1  0
 14 15  2  3
 15 16  1  0
 16 17  1  0
 17 18  1  0
 18 19  1  0
 19 20  1  0
  5  2  1  0
 12 10  1  0
M  END
>  <docking_score>  (3) 
-4.7329999999999997

$$$$
