
     RDKit          3D

 10 10  0  0  0  0  0  0  0  0999 V2000
    5.8981   -0.9012   -7.6198 N   0  0  0  0  0  0  0  0  0  0  0  0
    5.5237   -2.2563   -7.3993 C   0  0  0  0  0  0  0  0  0  0  0  0
    5.0349   -2.9520   -8.3221 O   0  0  0  0  0  0  0  0  0  0  0  0
    5.7269   -2.7845   -6.0942 N   0  0  0  0  0  0  0  0  0  0  0  0
    6.3857   -2.1276   -5.1301 O   0  0  0  0  0  0  0  0  0  0  0  0
    6.5627   -0.8435   -5.3637 O   0  0  0  0  0  0  0  0  0  0  0  0
    6.3929   -0.2591   -6.6152 C   0  0  0  0  0  0  0  0  0  0  0  0
    6.7808    1.0843   -6.7753 O   0  0  0  0  0  0  0  0  0  0  0  0
    6.1290    2.0631   -6.0496 N   0  0  0  0  0  0  0  0  0  0  0  0
    6.7103    2.4407   -4.9931 O   0  0  0  0  0  0  0  0  0  0  0  0
  1  2  1  0
  2  3  2  0
  2  4  1  0
  4  5  1  0
  5  6  1  0
  6  7  1  0
  7  8  1  0
  8  9  1  0
  9 10  2  0
  1  7  2  0
M  END
>  <docking_score>  (1) 
-4.6449999999999996

$$$$

     RDKit          3D

 10 10  0  0  0  0  0  0  0  0999 V2000
    6.0747   -1.4466   -5.9890 N   0  0  0  0  0  0  0  0  0  0  0  0
    5.4919   -2.4765   -6.7794 C   0  0  0  0  0  0  0  0  0  0  0  0
    5.1084   -3.5530   -6.2609 O   0  0  0  0  0  0  0  0  0  0  0  0
    5.3637   -2.2334   -8.1751 N   0  0  0  0  0  0  0  0  0  0  0  0
    5.6153   -1.0448   -8.7399 O   0  0  0  0  0  0  0  0  0  0  0  0
    6.2836   -0.2051   -7.9764 O   0  0  0  0  0  0  0  0  0  0  0  0
    6.4410   -0.3724   -6.6039 C   0  0  0  0  0  0  0  0  0  0  0  0
    7.0236    0.6795   -5.8724 O   0  0  0  0  0  0  0  0  0  0  0  0
    6.3420    1.8760   -5.7569 N   0  0  0  0  0  0  0  0  0  0  0  0
    6.3447    2.6099   -6.7855 O   0  0  0  0  0  0  0  0  0  0  0  0
  1  2  1  0
  2  3  2  0
  2  4  1  0
  4  5  1  0
  5  6  1  0
  6  7  1  0
  7  8  1  0
  8  9  1  0
  9 10  2  0
  1  7  2  0
M  END
>  <docking_score>  (2) 
-4.3300000000000001

$$$$

     RDKit          3D

 10 10  0  0  0  0  0  0  0  0999 V2000
    5.7839   -2.7204   -6.3837 N   0  0  0  0  0  0  0  0  0  0  0  0
    6.4173   -1.4750   -6.1137 C   0  0  0  0  0  0  0  0  0  0  0  0
    6.9438   -1.2439   -4.9983 O   0  0  0  0  0  0  0  0  0  0  0  0
    6.4274   -0.5089   -7.1579 N   0  0  0  0  0  0  0  0  0  0  0  0
    6.0170   -0.7719   -8.4058 O   0  0  0  0  0  0  0  0  0  0  0  0
    5.3169   -1.8804   -8.5310 O   0  0  0  0  0  0  0  0  0  0  0  0
    5.2683   -2.8733   -7.5572 C   0  0  0  0  0  0  0  0  0  0  0  0
    4.6291   -4.0848   -7.8799 O   0  0  0  0  0  0  0  0  0  0  0  0
    5.2411   -5.2777   -7.5453 N   0  0  0  0  0  0  0  0  0  0  0  0
    6.2653   -5.5770   -8.2221 O   0  0  0  0  0  0  0  0  0  0  0  0
  1  2  1  0
  2  3  2  0
  2  4  1  0
  4  5  1  0
  5  6  1  0
  6  7  1  0
  7  8  1  0
  8  9  1  0
  9 10  2  0
  1  7  2  0
M  END
>  <docking_score>  (3) 
-3.8679999999999999

$$$$
