
     RDKit          3D

 24 25  0  0  0  0  0  0  0  0999 V2000
    3.9711   13.5920    3.9081 C   0  0  0  0  0  0  0  0  0  0  0  0
    4.2341   12.3281    3.1233 C   0  0  1  0  0  0  0  0  0  0  0  0
    5.0306   12.5832    1.8764 C   0  0  0  0  0  0  0  0  0  0  0  0
    6.5179   12.5673    2.0993 C   0  0  2  0  0  0  0  0  0  0  0  0
    7.0656   11.3638    1.6696 O   0  0  0  0  0  0  0  0  0  0  0  0
    6.7962   12.8107    3.5576 C   0  0  2  0  0  0  0  0  0  0  0  0
    8.1690   12.9020    3.7312 O   0  0  0  0  0  0  0  0  0  0  0  0
    6.2829   11.6519    4.3662 C   0  0  1  0  0  0  0  0  0  0  0  0
    6.3834   11.9519    5.7245 O   0  0  0  0  0  0  0  0  0  0  0  0
    4.8657   11.2566    3.9637 C   0  0  1  0  0  0  0  0  0  0  0  0
    4.0859   10.9044    5.1081 N   0  0  0  0  0  0  0  0  0  0  0  0
    3.6674    9.5532    5.2017 C   0  0  1  0  0  0  0  0  0  0  0  0
    4.3935    8.6922    4.1884 C   0  0  0  0  0  0  0  0  0  0  0  0
    3.4579    7.6724    3.5388 C   0  0  2  0  0  0  0  0  0  0  0  0
    4.2613    6.6038    3.1148 O   0  0  0  0  0  0  0  0  0  0  0  0
    2.6230    8.2427    2.4374 C   0  0  0  0  0  0  0  0  0  0  0  0
    2.6895    7.1677    4.6025 O   0  0  0  0  0  0  0  0  0  0  0  0
    3.6154    6.7189    5.5282 C   0  0  2  0  0  0  0  0  0  0  0  0
    3.3585    5.3980    5.9071 O   0  0  0  0  0  0  0  0  0  0  0  0
    3.7266    7.5410    6.7558 C   0  0  2  0  0  0  0  0  0  0  0  0
    2.7524    7.1693    7.8465 C   0  0  0  0  0  2  0  0  0  0  0  0
    3.7558    8.9813    6.5876 C   0  0  1  0  0  0  0  0  0  0  0  0
    4.8065    9.5356    7.3294 O   0  0  0  0  0  0  0  0  0  0  0  0
    4.2982   10.2605    8.3324 O   0  0  0  0  0  0  0  0  0  0  0  0
  2  1  1  1
  2  3  1  0
  3  4  1  0
  4  5  1  1
  4  6  1  0
  6  7  1  6
  6  8  1  0
  8  9  1  1
  8 10  1  0
 10 11  1  1
 12 11  1  1
 12 13  1  0
 13 14  1  0
 14 15  1  0
 14 16  1  6
 14 17  1  0
 17 18  1  0
 18 19  1  1
 18 20  1  0
 20 21  1  1
 20 22  1  0
 22 23  1  6
 23 24  1  0
 10  2  1  0
 22 12  1  0
M  RAD  1  21   3
M  END
>  <docking_score>  (1) 
-4.3719999999999999

$$$$

     RDKit          3D

 24 25  0  0  0  0  0  0  0  0999 V2000
   18.3256   -7.0515   -6.5222 C   0  0  0  0  0  0  0  0  0  0  0  0
   17.9452   -5.6157   -6.7985 C   0  0  1  0  0  0  0  0  0  0  0  0
   16.8061   -5.5015   -7.7700 C   0  0  0  0  0  0  0  0  0  0  0  0
   15.4519   -5.5705   -7.1194 C   0  0  2  0  0  0  0  0  0  0  0  0
   14.8975   -4.3007   -7.0046 O   0  0  0  0  0  0  0  0  0  0  0  0
   15.5877   -6.2366   -5.7773 C   0  0  2  0  0  0  0  0  0  0  0  0
   14.3204   -6.3921   -5.2363 O   0  0  0  0  0  0  0  0  0  0  0  0
   16.3994   -5.3616   -4.8631 C   0  0  1  0  0  0  0  0  0  0  0  0
   16.6718   -6.0502   -3.6813 O   0  0  0  0  0  0  0  0  0  0  0  0
   17.6665   -4.8477   -5.5392 C   0  0  1  0  0  0  0  0  0  0  0  0
   18.7676   -4.8391   -4.6284 N   0  0  0  0  0  0  0  0  0  0  0  0
   19.3531   -3.5785   -4.3497 C   0  0  1  0  0  0  0  0  0  0  0  0
   18.5368   -2.4577   -4.9605 C   0  0  0  0  0  0  0  0  0  0  0  0
   19.4285   -1.3800   -5.5776 C   0  0  2  0  0  0  0  0  0  0  0  0
   18.6859   -0.1902   -5.5670 O   0  0  0  0  0  0  0  0  0  0  0  0
   19.9394   -1.7324   -6.9377 C   0  0  0  0  0  0  0  0  0  0  0  0
   20.4577   -1.1906   -4.6387 O   0  0  0  0  0  0  0  0  0  0  0  0
   19.8071   -0.9089   -3.4500 C   0  0  2  0  0  0  0  0  0  0  0  0
   20.2923    0.2666   -2.8694 O   0  0  0  0  0  0  0  0  0  0  0  0
   19.8605   -1.9854   -2.4334 C   0  0  2  0  0  0  0  0  0  0  0  0
   21.0795   -1.9452   -1.5449 C   0  0  0  0  0  2  0  0  0  0  0  0
   19.6266   -3.3413   -2.8922 C   0  0  1  0  0  0  0  0  0  0  0  0
   18.6977   -3.9812   -2.0621 O   0  0  0  0  0  0  0  0  0  0  0  0
   17.6663   -3.1574   -1.8441 O   0  0  0  0  0  0  0  0  0  0  0  0
  2  1  1  1
  2  3  1  0
  3  4  1  0
  4  5  1  1
  4  6  1  0
  6  7  1  1
  6  8  1  0
  8  9  1  1
  8 10  1  0
 10 11  1  1
 12 11  1  1
 12 13  1  0
 13 14  1  0
 14 15  1  0
 14 16  1  6
 14 17  1  0
 17 18  1  0
 18 19  1  1
 18 20  1  0
 20 21  1  6
 20 22  1  0
 22 23  1  1
 23 24  1  0
 10  2  1  0
 22 12  1  0
M  RAD  1  21   3
M  END
>  <docking_score>  (2) 
-4.2990000000000004

$$$$

     RDKit          3D

 24 25  0  0  0  0  0  0  0  0999 V2000
   19.5950    0.1433   -4.5282 C   0  0  0  0  0  0  0  0  0  0  0  0
   19.7384   -1.3181   -4.8839 C   0  0  1  0  0  0  0  0  0  0  0  0
   21.1301   -1.8308   -4.6500 C   0  0  0  0  0  0  0  0  0  0  0  0
   21.3653   -2.3115   -3.2446 C   0  0  2  0  0  0  0  0  0  0  0  0
   21.3220   -3.7000   -3.1872 O   0  0  0  0  0  0  0  0  0  0  0  0
   20.3392   -1.6895   -2.3370 C   0  0  2  0  0  0  0  0  0  0  0  0
   20.6326   -2.0534   -1.0314 O   0  0  0  0  0  0  0  0  0  0  0  0
   18.9748   -2.2132   -2.6895 C   0  0  1  0  0  0  0  0  0  0  0  0
   18.0075   -1.5124   -1.9695 O   0  0  0  0  0  0  0  0  0  0  0  0
   18.7184   -2.1754   -4.1927 C   0  0  1  0  0  0  0  0  0  0  0  0
   17.3720   -1.7886   -4.4748 N   0  0  0  0  0  0  0  0  0  0  0  0
   16.6429   -2.6212   -5.3605 C   0  0  1  0  0  0  0  0  0  0  0  0
   17.5621   -3.6042   -6.0565 C   0  0  0  0  0  0  0  0  0  0  0  0
   17.2004   -3.7690   -7.5327 C   0  0  2  0  0  0  0  0  0  0  0  0
   17.6537   -5.0393   -7.9176 O   0  0  0  0  0  0  0  0  0  0  0  0
   17.7298   -2.6758   -8.4044 C   0  0  0  0  0  0  0  0  0  0  0  0
   15.7968   -3.8491   -7.5474 O   0  0  0  0  0  0  0  0  0  0  0  0
   15.4903   -4.8775   -6.6733 C   0  0  2  0  0  0  0  0  0  0  0  0
   14.6476   -5.8198   -7.2701 O   0  0  0  0  0  0  0  0  0  0  0  0
   14.8788   -4.4528   -5.3923 C   0  0  2  0  0  0  0  0  0  0  0  0
   13.3774   -4.3083   -5.4348 C   0  0  0  0  0  2  0  0  0  0  0  0
   15.4678   -3.3076   -4.7251 C   0  0  1  0  0  0  0  0  0  0  0  0
   15.6822   -3.5921   -3.3706 O   0  0  0  0  0  0  0  0  0  0  0  0
   16.2306   -4.8074   -3.2610 O   0  0  0  0  0  0  0  0  0  0  0  0
  2  1  1  1
  2  3  1  0
  3  4  1  0
  4  5  1  6
  4  6  1  0
  6  7  1  1
  6  8  1  0
  8  9  1  1
  8 10  1  0
 10 11  1  1
 12 11  1  1
 12 13  1  0
 13 14  1  0
 14 15  1  0
 14 16  1  6
 14 17  1  0
 17 18  1  0
 18 19  1  6
 18 20  1  0
 20 21  1  6
 20 22  1  0
 22 23  1  1
 23 24  1  0
 10  2  1  0
 22 12  1  0
M  RAD  1  21   3
M  END
>  <docking_score>  (3) 
-4.2960000000000003

$$$$
