
     RDKit          3D

 36 37  0  0  0  0  0  0  0  0999 V2000
    4.8206   12.7585    4.8568 C   0  0  2  0  0  0  0  0  0  0  0  0
    5.5878   13.8595    5.4978 C   0  0  1  0  0  0  0  0  0  0  0  0
    4.5771   14.8703    6.0526 C   0  0  0  0  0  0  0  0  0  0  0  0
    6.4745   13.3925    6.5959 C   0  0  0  0  0  0  0  0  0  0  0  0
    6.9447   14.6049    7.3996 C   0  0  0  0  0  0  0  0  0  0  0  0
    6.3072   14.4783    8.7665 C   0  0  0  0  0  0  0  0  0  0  0  0
    6.5799   15.6494    9.6552 C   0  0  1  0  0  0  0  0  0  0  0  0
    5.2415   16.0604   10.2817 C   0  0  0  0  0  0  0  0  0  0  0  0
    7.5370   15.1932   10.7531 C   0  0  0  0  0  3  0  0  0  0  0  0
    7.2411   13.7178   10.9859 C   0  0  0  0  0  0  0  0  0  0  0  0
    5.9127   13.6587   11.7179 C   0  0  0  0  0  0  0  0  0  0  0  0
    5.2077   12.3461   11.5048 C   0  0  0  0  0  3  0  0  0  0  0  0
    5.2101   11.5309   12.7702 C   0  0  0  0  0  3  0  0  0  0  0  0
    3.8537   11.4725   13.4221 C   0  0  0  0  0  2  0  0  0  0  0  0
    5.5926   10.1003   12.4071 C   0  0  0  0  0  0  0  0  0  0  0  0
    4.3201    9.4517   11.8735 C   0  0  1  0  0  0  0  0  0  0  0  0
    3.5065   10.4878   11.1191 C   0  0  0  0  0  0  0  0  0  0  0  0
    4.6563    8.2602   10.9892 C   0  0  0  0  0  0  0  0  0  0  0  0
    3.5849    8.1313    9.9372 C   0  0  0  0  0  0  0  0  0  0  0  0
    4.1178    8.2715    8.6562 O   0  0  0  0  0  0  0  0  0  0  0  0
    3.1257    8.7664    7.8044 C   0  0  0  0  0  0  0  0  0  0  0  0
    3.3355    8.1018    6.4616 C   0  0  1  0  0  0  0  0  0  0  0  0
    2.2774    8.5541    5.4691 C   0  0  0  0  0  2  0  0  0  0  0  0
    4.5917    8.4870    5.9695 O   0  0  0  0  0  0  0  0  0  0  0  0
    4.3985    9.7210    5.3284 C   0  0  0  0  0  0  0  0  0  0  0  0
    5.7008   10.5201    5.3308 C   0  0  0  0  0  3  0  0  0  0  0  0
    5.5988   11.6393    4.3210 C   0  0  2  0  0  0  0  0  0  0  0  0
    6.9004   11.9146    3.7042 C   0  0  1  0  0  0  0  0  0  0  0  0
    8.0387   11.8351    4.7308 C   0  0  0  0  0  0  0  0  0  0  0  0
    7.1955   10.7696    2.7201 C   0  0  0  0  0  2  0  0  0  0  0  0
    7.0519   13.1778    2.9585 C   0  0  0  0  0  3  0  0  0  0  0  0
    6.0240   14.2110    3.1789 C   0  0  0  0  0  3  0  0  0  0  0  0
    6.4593   15.6014    2.8563 C   0  0  0  0  0  0  0  0  0  0  0  0
    4.6524   13.8649    2.6773 C   0  0  0  0  0  0  0  0  0  0  0  0
    3.8699   13.2748    3.8166 C   0  0  2  0  0  0  0  0  0  0  0  0
    2.8063   14.1709    4.3537 C   0  0  0  0  0  0  0  0  0  0  0  0
  1  2  1  6
  2  3  1  1
  2  4  1  0
  4  5  1  0
  5  6  1  0
  6  7  1  0
  7  8  1  1
  7  9  1  0
  9 10  1  0
 10 11  1  0
 11 12  1  0
 12 13  1  0
 13 14  1  0
 13 15  1  0
 15 16  1  0
 16 17  1  6
 16 18  1  0
 18 19  1  0
 19 20  1  0
 20 21  1  0
 21 22  1  0
 22 23  1  6
 22 24  1  0
 24 25  1  0
 25 26  1  0
 27 26  1  1
 27 28  1  0
 28 29  1  1
 28 30  1  0
 28 31  1  0
 31 32  1  0
 32 33  1  0
 32 34  1  0
 34 35  1  0
 35 36  1  1
 27  1  1  0
 35  1  1  0
M  RAD  8   9   2  12   2  13   2  14   3  23   3  26   2  30   3  31   2
M  RAD  1  32   2
M  END
>  <docking_score>  (1) 
-4.7370000000000001

$$$$

     RDKit          3D

 36 37  0  0  0  0  0  0  0  0999 V2000
    5.3366   10.8943    5.3849 C   0  0  2  0  0  0  0  0  0  0  0  0
    4.4596    9.9918    6.1774 C   0  0  1  0  0  0  0  0  0  0  0  0
    5.3537    8.9376    6.8408 C   0  0  0  0  0  0  0  0  0  0  0  0
    3.6770   10.7048    7.2211 C   0  0  0  0  0  0  0  0  0  0  0  0
    3.0862    9.6750    8.1841 C   0  0  0  0  0  0  0  0  0  0  0  0
    3.7812    9.8905    9.5112 C   0  0  0  0  0  0  0  0  0  0  0  0
    3.3943    8.8867   10.5495 C   0  0  1  0  0  0  0  0  0  0  0  0
    4.6912    8.3891   11.2000 C   0  0  0  0  0  0  0  0  0  0  0  0
    2.5405    9.5981   11.5957 C   0  0  0  0  0  3  0  0  0  0  0  0
    3.0274   11.0405   11.6292 C   0  0  0  0  0  0  0  0  0  0  0  0
    4.3770   11.0199   12.3233 C   0  0  0  0  0  0  0  0  0  0  0  0
    5.2337   12.1929   11.9285 C   0  0  0  0  0  3  0  0  0  0  0  0
    5.3774   13.1553   13.0769 C   0  0  0  0  0  3  0  0  0  0  0  0
    6.7520   13.1203   13.6911 C   0  0  0  0  0  2  0  0  0  0  0  0
    5.1655   14.5657   12.5376 C   0  0  0  0  0  0  0  0  0  0  0  0
    6.4903   14.9717   11.9013 C   0  0  1  0  0  0  0  0  0  0  0  0
    7.1407   13.7519   11.2737 C   0  0  0  0  0  0  0  0  0  0  0  0
    6.2762   16.0748   10.8756 C   0  0  0  0  0  0  0  0  0  0  0  0
    7.3183   15.9298    9.7967 C   0  0  0  0  0  0  0  0  0  0  0  0
    6.7282   15.6983    8.5546 O   0  0  0  0  0  0  0  0  0  0  0  0
    7.6203   14.9755    7.7568 C   0  0  0  0  0  0  0  0  0  0  0  0
    7.4496   15.4860    6.3430 C   0  0  1  0  0  0  0  0  0  0  0  0
    8.4076   14.7787    5.3989 C   0  0  0  0  0  2  0  0  0  0  0  0
    6.1387   15.2069    5.9278 O   0  0  0  0  0  0  0  0  0  0  0  0
    6.1531   13.8870    5.4494 C   0  0  0  0  0  0  0  0  0  0  0  0
    4.7615   13.2695    5.5792 C   0  0  0  0  0  3  0  0  0  0  0  0
    4.6871   12.0276    4.7220 C   0  0  2  0  0  0  0  0  0  0  0  0
    3.3408   11.8467    4.1698 C   0  0  1  0  0  0  0  0  0  0  0  0
    2.2576   12.2019    5.1976 C   0  0  0  0  0  0  0  0  0  0  0  0
    3.1582   12.8860    3.0505 C   0  0  0  0  0  2  0  0  0  0  0  0
    3.0061   10.5293    3.5976 C   0  0  0  0  0  3  0  0  0  0  0  0
    3.9030    9.4084    3.9322 C   0  0  0  0  0  3  0  0  0  0  0  0
    3.2855    8.0563    3.8012 C   0  0  0  0  0  0  0  0  0  0  0  0
    5.2892    9.5081    3.3652 C   0  0  0  0  0  0  0  0  0  0  0  0
    6.1784   10.1319    4.4038 C   0  0  2  0  0  0  0  0  0  0  0  0
    7.1388    9.1814    5.0338 C   0  0  0  0  0  0  0  0  0  0  0  0
  1  2  1  6
  2  3  1  1
  2  4  1  0
  4  5  1  0
  5  6  1  0
  6  7  1  0
  7  8  1  1
  7  9  1  0
  9 10  1  0
 10 11  1  0
 11 12  1  0
 12 13  1  0
 13 14  1  0
 13 15  1  0
 15 16  1  0
 16 17  1  6
 16 18  1  0
 18 19  1  0
 19 20  1  0
 20 21  1  0
 21 22  1  0
 22 23  1  6
 22 24  1  0
 24 25  1  0
 25 26  1  0
 27 26  1  1
 27 28  1  0
 28 29  1  1
 28 30  1  0
 28 31  1  0
 31 32  1  0
 32 33  1  0
 32 34  1  0
 34 35  1  0
 35 36  1  1
 27  1  1  0
 35  1  1  0
M  RAD  8   9   2  12   2  13   2  14   3  23   3  26   2  30   3  31   2
M  RAD  1  32   2
M  END
>  <docking_score>  (2) 
-4.016

$$$$
