
     RDKit          3D

 26 29  0  0  0  0  0  0  0  0999 V2000
   14.1030   -3.8980   -5.4176 C   0  0  0  0  0  0  0  0  0  0  0  0
   15.1616   -4.8937   -5.8237 C   0  0  2  0  0  0  0  0  0  0  0  0
   14.7504   -5.4667   -7.1717 C   0  0  0  0  0  0  0  0  0  0  0  0
   15.2739   -6.0511   -4.8663 C   0  0  0  0  0  0  0  0  0  0  0  0
   16.6537   -6.6847   -4.8825 C   0  0  0  0  0  0  0  0  0  0  0  0
   17.5900   -5.6758   -4.2556 C   0  0  1  0  0  0  0  0  0  0  0  0
   18.1085   -6.1188   -2.9174 C   0  0  0  0  0  0  0  0  0  0  0  0
   19.3030   -5.1847   -2.6794 C   0  0  2  0  0  0  0  0  0  0  0  0
   18.8188   -4.0993   -1.7656 C   0  0  1  0  0  0  0  0  0  0  0  0
   19.7807   -2.9606   -1.6165 C   0  0  0  0  0  0  0  0  0  0  0  0
   18.8208   -5.4064   -5.0471 C   0  0  0  0  0  0  0  0  0  0  0  0
   19.7177   -4.7040   -4.0351 C   0  0  1  0  0  0  0  0  0  0  0  0
   19.7557   -3.2300   -4.1955 C   0  0  0  0  0  0  0  0  0  0  0  0
   18.6855   -2.7058   -5.0718 C   0  0  0  0  0  0  0  0  0  0  0  0
   18.5012   -1.2374   -5.0740 C   0  0  0  0  0  0  0  0  0  0  0  0
   17.3672   -0.8711   -6.0059 C   0  0  2  0  0  0  0  0  0  0  0  0
   16.0711   -0.9555   -5.3662 N   0  0  0  0  0  2  0  0  0  0  0  0
   17.2834   -1.9962   -7.0443 C   0  0  0  0  0  0  0  0  0  0  0  0
   16.6459   -3.0814   -6.2325 C   0  0  0  0  0  0  0  0  0  0  0  0
   15.7048   -2.3445   -5.3305 C   0  0  1  0  0  0  0  0  0  0  0  0
   15.6826   -2.8879   -3.9174 C   0  0  0  0  0  2  0  0  0  0  0  0
   15.9762   -1.8537   -2.8807 C   0  0  0  0  0  0  0  0  0  0  0  0
   17.2004   -2.1987   -2.0561 C   0  0  0  0  0  3  0  0  0  0  0  0
   17.4377   -3.6625   -2.1667 C   0  0  2  0  0  0  0  0  0  0  0  0
   16.3656   -4.5239   -1.5970 C   0  0  0  0  0  0  0  0  0  0  0  0
   14.4213   -2.5899   -5.8544 O   0  0  0  0  0  0  0  0  0  0  0  0
  1  2  1  0
  2  3  1  6
  2  4  1  0
  4  5  1  0
  6  5  1  6
  6  7  1  0
  8  7  1  6
  8  9  1  0
  9 10  1  6
  6 11  1  0
 12 11  1  6
 12 13  1  0
 13 14  1  0
 14 15  1  0
 15 16  1  0
 16 17  1  0
 16 18  1  6
 18 19  1  0
 20 19  1  6
 20 21  1  0
 21 22  1  0
 22 23  1  0
 23 24  1  0
 24 25  1  1
 20 26  1  0
 26  1  1  0
 12  8  1  0
 24  9  1  0
 20 17  1  0
M  CHG  1  17   1
M  RAD  3  17   3  21   3  23   2
M  END
>  <docking_score>  (1) 
-7.6580000000000004

$$$$

     RDKit          3D

 26 29  0  0  0  0  0  0  0  0999 V2000
   16.8858   -3.2735   -1.8723 C   0  0  0  0  0  0  0  0  0  0  0  0
   18.2597   -3.1566   -2.4851 C   0  0  2  0  0  0  0  0  0  0  0  0
   19.2667   -3.5592   -1.4181 C   0  0  0  0  0  0  0  0  0  0  0  0
   18.5960   -1.7489   -2.9025 C   0  0  0  0  0  0  0  0  0  0  0  0
   19.6196   -1.7059   -4.0233 C   0  0  0  0  0  0  0  0  0  0  0  0
   18.9195   -2.2327   -5.2562 C   0  0  1  0  0  0  0  0  0  0  0  0
   18.6918   -1.1699   -6.2928 C   0  0  0  0  0  0  0  0  0  0  0  0
   18.3699   -1.9789   -7.5569 C   0  0  2  0  0  0  0  0  0  0  0  0
   16.8773   -1.9733   -7.6969 C   0  0  1  0  0  0  0  0  0  0  0  0
   16.3643   -2.9183   -8.7399 C   0  0  0  0  0  0  0  0  0  0  0  0
   19.6719   -3.2901   -5.9842 C   0  0  0  0  0  0  0  0  0  0  0  0
   18.9585   -3.3364   -7.3300 C   0  0  1  0  0  0  0  0  0  0  0  0
   18.0052   -4.4652   -7.4598 C   0  0  0  0  0  0  0  0  0  0  0  0
   17.6900   -5.1202   -6.1715 C   0  0  0  0  0  0  0  0  0  0  0  0
   16.5613   -6.0773   -6.1821 C   0  0  0  0  0  0  0  0  0  0  0  0
   16.3652   -6.6440   -4.7933 C   0  0  2  0  0  0  0  0  0  0  0  0
   15.5392   -5.7978   -3.9578 N   0  0  0  0  0  2  0  0  0  0  0  0
   17.7267   -6.5498   -4.0942 C   0  0  0  0  0  0  0  0  0  0  0  0
   17.7896   -5.0832   -3.7973 C   0  0  0  0  0  0  0  0  0  0  0  0
   16.3690   -4.7208   -3.4924 C   0  0  1  0  0  0  0  0  0  0  0  0
   15.9520   -3.3898   -4.0815 C   0  0  0  0  0  2  0  0  0  0  0  0
   14.7419   -3.4807   -4.9520 C   0  0  0  0  0  0  0  0  0  0  0  0
   15.0198   -3.0258   -6.3709 C   0  0  0  0  0  3  0  0  0  0  0  0
   16.2304   -2.1625   -6.3534 C   0  0  2  0  0  0  0  0  0  0  0  0
   16.0933   -0.8927   -5.5887 C   0  0  0  0  0  0  0  0  0  0  0  0
   16.3214   -4.5521   -2.0955 O   0  0  0  0  0  0  0  0  0  0  0  0
  1  2  1  0
  2  3  1  1
  2  4  1  0
  4  5  1  0
  6  5  1  1
  6  7  1  0
  8  7  1  1
  8  9  1  0
  9 10  1  6
  6 11  1  0
 12 11  1  1
 12 13  1  0
 13 14  1  0
 14 15  1  0
 15 16  1  0
 16 17  1  0
 16 18  1  1
 18 19  1  0
 20 19  1  6
 20 21  1  0
 21 22  1  0
 22 23  1  0
 23 24  1  0
 24 25  1  6
 20 26  1  0
 26  1  1  0
 12  8  1  0
 24  9  1  0
 20 17  1  0
M  CHG  1  17   1
M  RAD  3  17   3  21   3  23   2
M  END
>  <docking_score>  (2) 
-7.3719999999999999

$$$$

     RDKit          3D

 26 29  0  0  0  0  0  0  0  0999 V2000
   18.9656   -1.0400   -4.7441 C   0  0  0  0  0  0  0  0  0  0  0  0
   19.4444   -2.2826   -5.4537 C   0  0  2  0  0  0  0  0  0  0  0  0
   20.9569   -2.3374   -5.2993 C   0  0  0  0  0  0  0  0  0  0  0  0
   19.1506   -2.2624   -6.9309 C   0  0  0  0  0  0  0  0  0  0  0  0
   19.0394   -3.6581   -7.5186 C   0  0  0  0  0  0  0  0  0  0  0  0
   17.7654   -4.2521   -6.9603 C   0  0  1  0  0  0  0  0  0  0  0  0
   16.7000   -4.4256   -8.0046 C   0  0  0  0  0  0  0  0  0  0  0  0
   15.7060   -5.3833   -7.3331 C   0  0  2  0  0  0  0  0  0  0  0  0
   14.5888   -4.5348   -6.8044 C   0  0  1  0  0  0  0  0  0  0  0  0
   13.6445   -5.2710   -5.9041 C   0  0  0  0  0  0  0  0  0  0  0  0
   17.9257   -5.6129   -6.3802 C   0  0  0  0  0  0  0  0  0  0  0  0
   16.4853   -6.0989   -6.2741 C   0  0  1  0  0  0  0  0  0  0  0  0
   15.9234   -6.0009   -4.9051 C   0  0  0  0  0  0  0  0  0  0  0  0
   16.7341   -5.1629   -3.9948 C   0  0  0  0  0  0  0  0  0  0  0  0
   16.1106   -4.8097   -2.7000 C   0  0  0  0  0  0  0  0  0  0  0  0
   17.0602   -3.9457   -1.9000 C   0  0  2  0  0  0  0  0  0  0  0  0
   16.9603   -2.5427   -2.2431 N   0  0  0  0  0  2  0  0  0  0  0  0
   18.4719   -4.2928   -2.3876 C   0  0  0  0  0  0  0  0  0  0  0  0
   18.4933   -3.5905   -3.7103 C   0  0  0  0  0  0  0  0  0  0  0  0
   17.6863   -2.3525   -3.4686 C   0  0  1  0  0  0  0  0  0  0  0  0
   16.7691   -2.0023   -4.6213 C   0  0  0  0  0  2  0  0  0  0  0  0
   15.3374   -1.8666   -4.2186 C   0  0  0  0  0  0  0  0  0  0  0  0
   14.4397   -2.8439   -4.9511 C   0  0  0  0  0  3  0  0  0  0  0  0
   15.1390   -3.2786   -6.1894 C   0  0  2  0  0  0  0  0  0  0  0  0
   15.3899   -2.2028   -7.1874 C   0  0  0  0  0  0  0  0  0  0  0  0
   18.6256   -1.3063   -3.3962 O   0  0  0  0  0  0  0  0  0  0  0  0
  1  2  1  0
  2  3  1  6
  2  4  1  0
  4  5  1  0
  6  5  1  6
  6  7  1  0
  8  7  1  1
  8  9  1  0
  9 10  1  1
  6 11  1  0
 12 11  1  1
 12 13  1  0
 13 14  1  0
 14 15  1  0
 15 16  1  0
 16 17  1  0
 16 18  1  6
 18 19  1  0
 20 19  1  6
 20 21  1  0
 21 22  1  0
 22 23  1  0
 23 24  1  0
 24 25  1  6
 20 26  1  0
 26  1  1  0
 12  8  1  0
 24  9  1  0
 20 17  1  0
M  CHG  1  17   1
M  RAD  3  17   3  21   3  23   2
M  END
>  <docking_score>  (3) 
-6.9569999999999999

$$$$
