
     RDKit          3D

  9  9  0  0  0  0  0  0  0  0999 V2000
    6.4771    1.8194   -6.1948 O   0  0  0  0  0  0  0  0  0  0  0  0
    6.6740    1.0196   -7.2226 O   0  0  0  0  0  0  0  0  0  0  0  0
    5.6505    0.0627   -7.2754 C   0  0  0  0  0  3  0  0  0  0  0  0
    6.2194   -1.1698   -7.5396 O   0  0  0  0  0  0  0  0  0  0  0  0
    6.4063   -1.9527   -6.4227 C   0  0  2  0  0  0  0  0  0  0  0  0
    5.2245   -2.8646   -6.2358 C   0  0  0  0  0  0  0  0  0  0  0  0
    6.6614   -1.1749   -5.1700 C   0  0  0  0  0  3  0  0  0  0  0  0
    7.5177    0.0462   -5.4057 C   0  0  0  0  0  3  0  0  0  0  0  0
    6.7185    1.1589   -5.0937 O   0  0  0  0  0  0  0  0  0  0  0  0
  1  2  1  0
  2  3  1  0
  3  4  1  0
  4  5  1  0
  5  6  1  1
  5  7  1  0
  7  8  1  0
  8  9  1  0
  9  1  1  0
M  RAD  3   3   2   7   2   8   2
M  END
>  <docking_score>  (1) 
-4.4640000000000004

$$$$

     RDKit          3D

  9  9  0  0  0  0  0  0  0  0999 V2000
    5.6618   -2.2793   -7.1321 O   0  0  0  0  0  0  0  0  0  0  0  0
    6.7262   -1.9021   -6.4542 O   0  0  0  0  0  0  0  0  0  0  0  0
    6.3570   -0.9516   -5.4917 C   0  0  0  0  0  3  0  0  0  0  0  0
    7.2909    0.0682   -5.5057 O   0  0  0  0  0  0  0  0  0  0  0  0
    6.9033    1.1742   -6.2282 C   0  0  2  0  0  0  0  0  0  0  0  0
    6.2524    2.1772   -5.3152 C   0  0  0  0  0  0  0  0  0  0  0  0
    6.0006    0.8629   -7.3803 C   0  0  0  0  0  3  0  0  0  0  0  0
    6.3707   -0.4226   -8.0807 C   0  0  0  0  0  3  0  0  0  0  0  0
    5.2849   -1.2972   -7.9069 O   0  0  0  0  0  0  0  0  0  0  0  0
  1  2  1  0
  2  3  1  0
  3  4  1  0
  4  5  1  0
  5  6  1  1
  5  7  1  0
  7  8  1  0
  8  9  1  0
  9  1  1  0
M  RAD  3   3   2   7   2   8   2
M  END
>  <docking_score>  (2) 
-4.2409999999999997

$$$$

     RDKit          3D

  9  9  0  0  0  0  0  0  0  0999 V2000
    7.2864    0.5959   -6.3047 O   0  0  0  0  0  0  0  0  0  0  0  0
    6.4687   -0.0668   -5.5128 O   0  0  0  0  0  0  0  0  0  0  0  0
    6.7357   -1.4402   -5.6060 C   0  0  0  0  0  3  0  0  0  0  0  0
    5.5307   -2.1140   -5.6851 O   0  0  0  0  0  0  0  0  0  0  0  0
    5.1651   -2.4615   -6.9662 C   0  0  2  0  0  0  0  0  0  0  0  0
    5.6327   -3.8590   -7.2684 C   0  0  0  0  0  0  0  0  0  0  0  0
    5.6545   -1.5149   -8.0167 C   0  0  0  0  0  3  0  0  0  0  0  0
    5.6120   -0.0736   -7.5687 C   0  0  0  0  0  3  0  0  0  0  0  0
    6.9432    0.3753   -7.5458 O   0  0  0  0  0  0  0  0  0  0  0  0
  1  2  1  0
  2  3  1  0
  3  4  1  0
  4  5  1  0
  5  6  1  6
  5  7  1  0
  7  8  1  0
  8  9  1  0
  9  1  1  0
M  RAD  3   3   2   7   2   8   2
M  END
>  <docking_score>  (3) 
-4.0860000000000003

$$$$
