
     RDKit          3D

 12 11  0  0  0  0  0  0  0  0999 V2000
   17.7686    5.8872   -5.5724 O   0  0  0  0  0  0  0  0  0  0  0  0
   19.0018    6.5634   -5.5769 C   0  0  0  0  0  0  0  0  0  0  0  0
   19.6230    6.3792   -4.2105 C   0  0  0  0  0  3  0  0  0  0  0  0
   19.0808    7.3209   -3.2527 N   0  0  0  0  0  0  0  0  0  0  0  0
   20.1849    8.0409   -2.6465 C   0  0  2  0  0  0  0  0  0  0  0  0
   21.1924    6.9923   -2.2088 C   0  0  0  0  0  0  0  0  0  0  0  0
   19.7059    8.6882   -1.5298 O   0  0  0  0  0  0  0  0  0  0  0  0
   20.3688    9.8229   -1.1571 C   0  0  1  0  0  0  0  0  0  0  0  0
   19.9214   10.8985   -1.9136 O   0  0  0  0  0  0  0  0  0  0  0  0
   20.3034   10.1128    0.3092 C   0  0  2  0  0  0  0  0  0  0  0  0
   21.2020    9.2839    0.9600 O   0  0  0  0  0  0  0  0  0  0  0  0
   18.8955    9.9552    0.8164 C   0  0  0  0  0  2  0  0  0  0  0  0
  1  2  1  0
  2  3  1  0
  3  4  1  0
  4  5  1  0
  5  6  1  1
  5  7  1  0
  7  8  1  0
  8  9  1  6
  8 10  1  0
 10 11  1  0
 10 12  1  1
M  RAD  2   3   2  12   3
M  END
>  <docking_score>  (1) 
-3.7469999999999999

$$$$

     RDKit          3D

 12 11  0  0  0  0  0  0  0  0999 V2000
   14.3685   -6.7746   -4.6948 O   0  0  0  0  0  0  0  0  0  0  0  0
   14.4490   -6.0525   -5.8991 C   0  0  0  0  0  0  0  0  0  0  0  0
   14.0405   -4.6276   -5.5996 C   0  0  0  0  0  3  0  0  0  0  0  0
   14.7457   -3.6871   -6.4460 N   0  0  0  0  0  0  0  0  0  0  0  0
   15.0269   -2.4956   -5.6675 C   0  0  2  0  0  0  0  0  0  0  0  0
   16.2679   -1.8675   -6.2773 C   0  0  0  0  0  0  0  0  0  0  0  0
   15.3167   -2.8894   -4.3805 O   0  0  0  0  0  0  0  0  0  0  0  0
   15.8200   -1.9271   -3.5519 C   0  0  1  0  0  0  0  0  0  0  0  0
   14.8016   -1.0710   -3.1530 O   0  0  0  0  0  0  0  0  0  0  0  0
   16.5788   -2.4673   -2.3811 C   0  0  2  0  0  0  0  0  0  0  0  0
   17.8742   -1.9807   -2.4366 O   0  0  0  0  0  0  0  0  0  0  0  0
   16.5232   -3.9709   -2.3641 C   0  0  0  0  0  2  0  0  0  0  0  0
  1  2  1  0
  2  3  1  0
  3  4  1  0
  4  5  1  0
  5  6  1  6
  5  7  1  0
  7  8  1  0
  8  9  1  1
  8 10  1  0
 10 11  1  0
 10 12  1  6
M  RAD  2   3   2  12   3
M  END
>  <docking_score>  (2) 
-3.3759999999999999

$$$$

     RDKit          3D

 12 11  0  0  0  0  0  0  0  0999 V2000
   17.0930   -6.4589   -4.3665 O   0  0  0  0  0  0  0  0  0  0  0  0
   17.8675   -5.3733   -3.9196 C   0  0  0  0  0  0  0  0  0  0  0  0
   17.5484   -5.1626   -2.4565 C   0  0  0  0  0  3  0  0  0  0  0  0
   16.4324   -4.2552   -2.2848 N   0  0  0  0  0  0  0  0  0  0  0  0
   16.6066   -3.1410   -3.1977 C   0  0  2  0  0  0  0  0  0  0  0  0
   17.0500   -1.9594   -2.3530 C   0  0  0  0  0  0  0  0  0  0  0  0
   15.3801   -2.8531   -3.7529 O   0  0  0  0  0  0  0  0  0  0  0  0
   15.2473   -3.1024   -5.0893 C   0  0  1  0  0  0  0  0  0  0  0  0
   13.9765   -3.5985   -5.3508 O   0  0  0  0  0  0  0  0  0  0  0  0
   15.5748   -1.9327   -5.9627 C   0  0  2  0  0  0  0  0  0  0  0  0
   14.7970   -0.8579   -5.5653 O   0  0  0  0  0  0  0  0  0  0  0  0
   15.3808   -2.2855   -7.4125 C   0  0  0  0  0  2  0  0  0  0  0  0
  1  2  1  0
  2  3  1  0
  3  4  1  0
  4  5  1  0
  5  6  1  1
  5  7  1  0
  7  8  1  0
  8  9  1  1
  8 10  1  0
 10 11  1  0
 10 12  1  6
M  RAD  2   3   2  12   3
M  END
>  <docking_score>  (3) 
-3.2280000000000002

$$$$
