
     RDKit          3D

 31 33  0  0  0  0  0  0  0  0999 V2000
   16.6462   -3.0074   -2.5162 C   0  0  0  0  0  0  0  0  0  0  0  0
   17.8940   -2.4064   -3.0974 C   0  0  1  0  0  0  0  0  0  0  0  0
   18.4695   -1.3841   -2.1345 C   0  0  0  0  0  0  0  0  0  0  0  0
   19.8479   -0.9392   -2.5366 C   0  0  2  0  0  0  0  0  0  0  0  0
   19.8234   -0.2247   -3.7213 O   0  0  0  0  0  0  0  0  0  0  0  0
   20.8413   -2.0910   -2.5768 C   0  0  2  0  0  0  0  0  0  0  0  0
   21.2652   -2.1875   -3.9118 O   0  0  0  0  0  0  0  0  0  0  0  0
   20.0354   -3.3559   -2.3043 C   0  0  1  0  0  0  0  0  0  0  0  0
   19.4483   -3.3058   -1.0448 O   0  0  0  0  0  0  0  0  0  0  0  0
   18.9674   -3.4119   -3.3670 C   0  0  1  0  0  0  0  0  0  0  0  0
   18.5107   -4.7570   -3.5103 N   0  0  0  0  0  0  0  0  0  0  0  0
   18.4156   -5.0274   -4.9640 C   0  0  1  0  0  0  0  0  0  0  0  0
   19.8196   -5.3675   -5.4188 C   0  0  0  0  0  0  0  0  0  0  0  0
   20.0357   -5.1848   -6.8779 C   0  0  1  0  0  0  0  0  0  0  0  0
   20.4461   -6.4992   -7.4696 O   0  0  0  0  0  0  0  0  0  0  0  0
   19.2530   -5.6838   -7.8530 C   0  0  1  0  0  0  0  0  0  0  0  0
   18.0551   -6.3376   -7.6522 O   0  0  0  0  0  0  0  0  0  0  0  0
   18.1857   -7.5951   -7.0904 C   0  0  1  0  0  0  0  0  0  0  0  0
   19.2605   -8.3152   -7.5771 O   0  0  0  0  0  0  0  0  0  0  0  0
   18.3153   -7.4129   -5.6003 C   0  0  2  0  0  0  0  0  0  0  0  0
   18.0483   -8.5535   -4.8705 O   0  0  0  0  0  0  0  0  0  0  0  0
   17.5574   -6.2282   -5.1917 C   0  0  1  0  0  0  0  0  0  0  0  0
   16.6397   -6.3555   -4.1587 O   0  0  0  0  0  0  0  0  0  0  0  0
   15.4586   -5.8384   -4.4535 N   0  0  0  0  0  0  0  0  0  0  0  0
   15.2454   -5.7979   -5.8187 N   0  0  0  0  0  0  0  0  0  0  0  0
   14.1309   -4.9118   -6.0669 C   0  0  2  0  0  0  0  0  0  0  0  0
   13.4185   -5.4165   -7.1525 O   0  0  0  0  0  0  0  0  0  0  0  0
   14.6559   -3.5908   -6.4344 N   0  0  0  0  0  0  0  0  0  0  0  0
   15.5628   -3.8214   -7.5473 C   0  0  0  0  0  3  0  0  0  0  0  0
   16.6276   -2.7378   -7.5267 C   0  0  0  0  0  3  0  0  0  0  0  0
   16.2561   -1.7061   -6.4892 C   0  0  0  0  0  2  0  0  0  0  0  0
  2  1  1  1
  2  3  1  0
  3  4  1  0
  4  5  1  6
  4  6  1  0
  6  7  1  6
  6  8  1  0
  8  9  1  1
  8 10  1  0
 10 11  1  1
 12 11  1  1
 12 13  1  0
 14 13  1  1
 14 15  1  0
 14 16  1  0
 16 17  1  1
 17 18  1  0
 18 19  1  6
 18 20  1  0
 20 21  1  1
 20 22  1  0
 22 23  1  1
 23 24  1  0
 24 25  1  0
 25 26  1  0
 26 27  1  6
 26 28  1  0
 28 29  1  0
 29 30  1  0
 30 31  1  0
 10  2  1  0
 22 12  1  0
 16 15  1  0
M  RAD  3  29   2  30   2  31   3
M  END
>  <docking_score>  (1) 
-4.468

$$$$

     RDKit          3D

 31 33  0  0  0  0  0  0  0  0999 V2000
   14.2533   -3.8079   -5.3212 C   0  0  0  0  0  0  0  0  0  0  0  0
   15.3479   -4.4124   -6.1533 C   0  0  1  0  0  0  0  0  0  0  0  0
   14.8198   -4.7419   -7.5375 C   0  0  0  0  0  0  0  0  0  0  0  0
   15.9216   -5.1052   -8.4933 C   0  0  2  0  0  0  0  0  0  0  0  0
   16.5297   -6.2955   -8.1355 O   0  0  0  0  0  0  0  0  0  0  0  0
   16.9249   -3.9766   -8.6791 C   0  0  2  0  0  0  0  0  0  0  0  0
   18.1513   -4.4698   -8.2059 O   0  0  0  0  0  0  0  0  0  0  0  0
   16.5143   -2.8792   -7.7039 C   0  0  1  0  0  0  0  0  0  0  0  0
   15.2400   -2.4076   -7.9990 O   0  0  0  0  0  0  0  0  0  0  0  0
   16.5249   -3.5080   -6.3337 C   0  0  1  0  0  0  0  0  0  0  0  0
   16.6577   -2.4872   -5.3443 N   0  0  0  0  0  0  0  0  0  0  0  0
   18.1089   -2.2524   -5.1593 C   0  0  1  0  0  0  0  0  0  0  0  0
   18.3359   -0.7844   -5.4545 C   0  0  0  0  0  0  0  0  0  0  0  0
   19.7415   -0.4567   -5.8094 C   0  0  1  0  0  0  0  0  0  0  0  0
   20.2648    0.5413   -4.8213 O   0  0  0  0  0  0  0  0  0  0  0  0
   20.8302   -0.8139   -5.1026 C   0  0  1  0  0  0  0  0  0  0  0  0
   20.8245   -1.6486   -4.0043 O   0  0  0  0  0  0  0  0  0  0  0  0
   20.2533   -1.0910   -2.8746 C   0  0  1  0  0  0  0  0  0  0  0  0
   20.5653    0.2432   -2.6915 O   0  0  0  0  0  0  0  0  0  0  0  0
   18.7609   -1.2634   -2.9909 C   0  0  2  0  0  0  0  0  0  0  0  0
   18.0865   -1.1355   -1.7934 O   0  0  0  0  0  0  0  0  0  0  0  0
   18.4740   -2.4939   -3.7315 C   0  0  1  0  0  0  0  0  0  0  0  0
   17.6004   -3.4140   -3.1698 O   0  0  0  0  0  0  0  0  0  0  0  0
   18.2193   -4.3490   -2.4683 N   0  0  0  0  0  0  0  0  0  0  0  0
   17.6808   -5.6010   -2.6993 N   0  0  0  0  0  0  0  0  0  0  0  0
   18.6728   -6.3881   -3.3960 C   0  0  2  0  0  0  0  0  0  0  0  0
   19.9069   -5.7637   -3.2286 O   0  0  0  0  0  0  0  0  0  0  0  0
   18.3480   -6.3900   -4.8278 N   0  0  0  0  0  0  0  0  0  0  0  0
   18.7133   -7.7106   -5.3144 C   0  0  0  0  0  3  0  0  0  0  0  0
   17.4378   -8.5040   -5.5426 C   0  0  0  0  0  3  0  0  0  0  0  0
   17.6331   -9.4135   -6.7315 C   0  0  0  0  0  2  0  0  0  0  0  0
  2  1  1  1
  2  3  1  0
  3  4  1  0
  4  5  1  1
  4  6  1  0
  6  7  1  1
  6  8  1  0
  8  9  1  6
  8 10  1  0
 10 11  1  1
 12 11  1  1
 12 13  1  0
 14 13  1  1
 14 15  1  0
 14 16  1  0
 16 17  1  1
 17 18  1  0
 18 19  1  6
 18 20  1  0
 20 21  1  1
 20 22  1  0
 22 23  1  1
 23 24  1  0
 24 25  1  0
 25 26  1  0
 26 27  1  6
 26 28  1  0
 28 29  1  0
 29 30  1  0
 30 31  1  0
 10  2  1  0
 22 12  1  0
 16 15  1  0
M  RAD  3  29   2  30   2  31   3
M  END
>  <docking_score>  (2) 
-4.282

$$$$

     RDKit          3D

 31 33  0  0  0  0  0  0  0  0999 V2000
   20.8300   -4.9721   -5.3856 C   0  0  0  0  0  0  0  0  0  0  0  0
   20.1858   -5.9010   -6.3746 C   0  0  1  0  0  0  0  0  0  0  0  0
   21.0885   -7.0959   -6.6216 C   0  0  0  0  0  0  0  0  0  0  0  0
   20.3935   -8.1815   -7.3951 C   0  0  2  0  0  0  0  0  0  0  0  0
   20.1052   -7.7771   -8.6866 O   0  0  0  0  0  0  0  0  0  0  0  0
   19.1680   -8.7177   -6.6702 C   0  0  2  0  0  0  0  0  0  0  0  0
   18.0717   -8.4209   -7.4957 O   0  0  0  0  0  0  0  0  0  0  0  0
   18.9981   -7.8522   -5.4268 C   0  0  1  0  0  0  0  0  0  0  0  0
   20.1048   -7.9638   -4.5924 O   0  0  0  0  0  0  0  0  0  0  0  0
   18.8653   -6.4326   -5.9168 C   0  0  1  0  0  0  0  0  0  0  0  0
   18.2117   -5.6460   -4.9206 N   0  0  0  0  0  0  0  0  0  0  0  0
   17.1432   -4.8825   -5.6067 C   0  0  1  0  0  0  0  0  0  0  0  0
   16.9671   -5.5352   -6.9619 C   0  0  0  0  0  0  0  0  0  0  0  0
   16.3267   -4.6524   -7.9716 C   0  0  1  0  0  0  0  0  0  0  0  0
   15.0640   -5.3052   -8.4466 O   0  0  0  0  0  0  0  0  0  0  0  0
   15.1829   -3.9644   -7.7959 C   0  0  1  0  0  0  0  0  0  0  0  0
   14.4891   -3.8689   -6.6074 O   0  0  0  0  0  0  0  0  0  0  0  0
   13.8628   -5.0411   -6.2237 C   0  0  1  0  0  0  0  0  0  0  0  0
   13.2897   -5.7370   -7.2717 O   0  0  0  0  0  0  0  0  0  0  0  0
   14.8919   -5.8982   -5.5332 C   0  0  2  0  0  0  0  0  0  0  0  0
   14.3539   -6.8968   -4.7470 O   0  0  0  0  0  0  0  0  0  0  0  0
   15.8617   -5.0351   -4.8553 C   0  0  1  0  0  0  0  0  0  0  0  0
   16.1260   -5.2662   -3.5129 O   0  0  0  0  0  0  0  0  0  0  0  0
   16.1071   -4.1606   -2.7872 N   0  0  0  0  0  0  0  0  0  0  0  0
   17.0805   -4.1774   -1.8058 N   0  0  0  0  0  0  0  0  0  0  0  0
   17.7132   -2.8781   -1.7872 C   0  0  2  0  0  0  0  0  0  0  0  0
   16.7456   -1.9282   -2.1069 O   0  0  0  0  0  0  0  0  0  0  0  0
   18.7500   -2.8472   -2.8262 N   0  0  0  0  0  0  0  0  0  0  0  0
   18.7925   -1.4738   -3.3018 C   0  0  0  0  0  3  0  0  0  0  0  0
   20.2216   -0.9722   -3.1824 C   0  0  0  0  0  3  0  0  0  0  0  0
   21.1194   -2.1321   -2.8251 C   0  0  0  0  0  2  0  0  0  0  0  0
  2  1  1  1
  2  3  1  0
  3  4  1  0
  4  5  1  6
  4  6  1  0
  6  7  1  6
  6  8  1  0
  8  9  1  1
  8 10  1  0
 10 11  1  1
 12 11  1  1
 12 13  1  0
 14 13  1  1
 14 15  1  0
 14 16  1  0
 16 17  1  1
 17 18  1  0
 18 19  1  6
 18 20  1  0
 20 21  1  1
 20 22  1  0
 22 23  1  1
 23 24  1  0
 24 25  1  0
 25 26  1  0
 26 27  1  6
 26 28  1  0
 28 29  1  0
 29 30  1  0
 30 31  1  0
 10  2  1  0
 22 12  1  0
 16 15  1  0
M  RAD  3  29   2  30   2  31   3
M  END
>  <docking_score>  (3) 
-3.7429999999999999

$$$$
