
     RDKit          3D

 34 36  0  0  0  0  0  0  0  0999 V2000
   10.6164   13.6468   13.5901 C   0  0  0  0  0  0  0  0  0  0  0  0
   11.3324   14.8694   13.0991 C   0  0  0  0  0  0  0  0  0  0  0  0
   11.8480   15.6687   14.2880 C   0  0  0  0  0  0  0  0  0  0  0  0
   12.5571   14.4880   12.2583 C   0  0  0  0  0  0  0  0  0  0  0  0
   10.2747   15.9162   12.1126 S   0  0  0  0  0  0  0  0  0  0  0  0
    8.8061   15.9315   12.7491 C   0  0  0  0  0  0  0  0  0  0  0  0
    8.3999   15.1881   13.9679 C   0  0  1  0  0  0  0  0  0  0  0  0
    8.6789   16.0076   15.2164 C   0  0  0  0  0  0  0  0  0  0  0  0
    6.9332   14.8095   13.9104 C   0  0  0  0  0  0  0  0  0  0  0  0
    6.1247   16.0436   13.5681 C   0  0  0  0  0  0  0  0  0  0  0  0
    6.4817   14.3681   15.2895 C   0  0  0  0  0  0  0  0  0  0  0  0
    6.7353   13.7226   12.9333 C   0  0  0  0  0  0  0  0  0  0  0  0
    7.4880   12.7311   12.9545 O   0  0  0  0  0  0  0  0  0  0  0  0
    5.7310   13.7770   11.9907 O   0  0  0  0  0  0  0  0  0  0  0  0
    5.7973   13.3290   10.7317 N   0  0  0  0  0  0  0  0  0  0  0  0
    6.2096   14.2356    9.7336 C   0  0  0  0  0  0  0  0  0  0  0  0
    5.0690   14.7204    8.9079 C   0  0  0  0  0  0  0  0  0  0  0  0
    5.3019   15.2371    7.7417 C   0  0  0  0  0  0  0  0  0  0  0  0
    6.6191   15.3713    7.1914 C   0  0  0  0  0  0  0  0  0  0  0  0
    6.9771   14.7035    6.1108 C   0  0  0  0  0  0  0  0  0  0  0  0
    5.8913   13.6256    5.2845 Cl  0  0  0  0  0  0  0  0  0  0  0  0
    8.3235   14.8766    5.6032 C   0  0  0  0  0  0  0  0  0  0  0  0
    8.4791   14.9248    4.3051 C   0  0  0  0  0  0  0  0  0  0  0  0
    8.5546   14.8574    2.9949 C   0  0  0  0  0  0  0  0  0  0  0  0
    5.7040   11.9675   10.4680 C   0  0  0  0  0  0  0  0  0  0  0  0
    4.5105   11.4060   11.0813 C   0  0  0  0  0  0  0  0  0  0  0  0
    4.6864   10.2580   11.7917 C   0  0  0  0  0  0  0  0  0  0  0  0
    2.2596   10.0545   12.4244 S   0  0  0  0  0  0  0  0  0  0  0  0
    2.2656    8.8848    9.6861 I   0  0  0  0  0  0  0  0  0  0  0  0
    3.2651    7.5347   12.6309 C   0  0  0  0  0  0  0  0  0  0  0  0
    4.1161    8.3599   12.9327 C   0  0  0  0  0  0  0  0  0  0  0  0
    4.6306    9.2656   12.4472 C   0  0  0  0  0  0  0  0  0  0  0  0
    3.1247    9.7564   12.3876 C   0  0  0  0  0  0  0  0  0  0  0  0
    3.6202    8.6850   11.3920 O   0  0  0  0  0  0  0  0  0  0  0  0
  1  2  1  0
  2  3  1  0
  2  4  1  0
  2  5  1  0
  5  6  2  3
  6  7  1  0
  7  8  1  1
  7  9  1  0
  9 10  1  0
  9 11  1  0
  9 12  1  0
 12 13  2  0
 12 14  1  0
 14 15  1  0
 15 16  1  0
 16 17  1  0
 17 18  2  3
 18 19  1  0
 19 20  2  3
 20 21  1  0
 20 22  1  0
 22 23  2  0
 23 24  2  0
 15 25  1  0
 25 26  1  0
 26 27  2  3
 27 28  1  0
 28 29  1  0
 28 30  2  0
 30 31  1  0
 31 32  2  0
 32 33  1  0
 33 34  1  0
 32 27  1  0
 33 28  1  0
 34 31  1  0
M  END
>  <docking_score>  (1) 
-2.5790000000000002

$$$$

     RDKit          3D

 34 36  0  0  0  0  0  0  0  0999 V2000
    9.0004   13.1338    3.7385 C   0  0  0  0  0  0  0  0  0  0  0  0
    7.6893   13.6461    4.2554 C   0  0  0  0  0  0  0  0  0  0  0  0
    7.0312   12.5789    5.1192 C   0  0  0  0  0  0  0  0  0  0  0  0
    7.8942   14.8747    5.1502 C   0  0  0  0  0  0  0  0  0  0  0  0
    6.5740   14.0904    2.9339 S   0  0  0  0  0  0  0  0  0  0  0  0
    5.1107   14.3296    3.5369 C   0  0  0  0  0  0  0  0  0  0  0  0
    4.7502   14.1991    4.9708 C   0  0  1  0  0  0  0  0  0  0  0  0
    4.8094   15.5488    5.6658 C   0  0  0  0  0  0  0  0  0  0  0  0
    3.3712   13.5906    5.1317 C   0  0  0  0  0  0  0  0  0  0  0  0
    2.4187   14.2843    4.1801 C   0  0  0  0  0  0  0  0  0  0  0  0
    2.8644   13.8767    6.5324 C   0  0  0  0  0  0  0  0  0  0  0  0
    3.4359   12.1361    4.8964 C   0  0  0  0  0  0  0  0  0  0  0  0
    3.5981   11.7063    3.7391 O   0  0  0  0  0  0  0  0  0  0  0  0
    3.3207   11.2341    5.9323 O   0  0  0  0  0  0  0  0  0  0  0  0
    4.3253   10.6120    6.5601 N   0  0  0  0  0  0  0  0  0  0  0  0
    4.3010   10.5841    7.9696 C   0  0  0  0  0  0  0  0  0  0  0  0
    2.9209   10.7243    8.5114 C   0  0  0  0  0  0  0  0  0  0  0  0
    2.7385   11.3440    9.6357 C   0  0  0  0  0  0  0  0  0  0  0  0
    3.8091   11.9122   10.4016 C   0  0  0  0  0  0  0  0  0  0  0  0
    3.8250   13.1975   10.7010 C   0  0  0  0  0  0  0  0  0  0  0  0
    2.5640   14.2831   10.1959 Cl  0  0  0  0  0  0  0  0  0  0  0  0
    4.9358   13.7155   11.4745 C   0  0  0  0  0  0  0  0  0  0  0  0
    5.9743   12.9368   11.6381 C   0  0  0  0  0  0  0  0  0  0  0  0
    6.9261   12.0534   11.8391 C   0  0  0  0  0  0  0  0  0  0  0  0
    5.2132    9.8184    5.8435 C   0  0  0  0  0  0  0  0  0  0  0  0
    4.5060    8.7511    5.1528 C   0  0  0  0  0  0  0  0  0  0  0  0
    3.6528    8.0098    5.9118 C   0  0  0  0  0  0  0  0  0  0  0  0
    2.9487    6.5245    4.0069 S   0  0  0  0  0  0  0  0  0  0  0  0
    5.5063    5.2513    4.8464 I   0  0  0  0  0  0  0  0  0  0  0  0
    2.4291    5.0907    6.2601 C   0  0  0  0  0  0  0  0  0  0  0  0
    2.2575    6.2844    6.4648 C   0  0  0  0  0  0  0  0  0  0  0  0
    2.8699    7.2544    6.3955 C   0  0  0  0  0  0  0  0  0  0  0  0
    2.9633    6.7770    4.8870 C   0  0  0  0  0  0  0  0  0  0  0  0
    3.8173    6.0757    5.9656 O   0  0  0  0  0  0  0  0  0  0  0  0
  1  2  1  0
  2  3  1  0
  2  4  1  0
  2  5  1  0
  5  6  2  3
  6  7  1  0
  7  8  1  6
  7  9  1  0
  9 10  1  0
  9 11  1  0
  9 12  1  0
 12 13  2  0
 12 14  1  0
 14 15  1  0
 15 16  1  0
 16 17  1  0
 17 18  2  3
 18 19  1  0
 19 20  2  3
 20 21  1  0
 20 22  1  0
 22 23  2  0
 23 24  2  0
 15 25  1  0
 25 26  1  0
 26 27  2  3
 27 28  1  0
 28 29  1  0
 28 30  2  0
 30 31  1  0
 31 32  2  0
 32 33  1  0
 33 34  1  0
 32 27  1  0
 33 28  1  0
 34 31  1  0
M  END
>  <docking_score>  (2) 
-2.1840000000000002

$$$$

     RDKit          3D

 34 36  0  0  0  0  0  0  0  0999 V2000
   20.1349   -1.2263   -7.7381 C   0  0  0  0  0  0  0  0  0  0  0  0
   20.3537   -1.1448   -6.2569 C   0  0  0  0  0  0  0  0  0  0  0  0
   21.3775   -0.0597   -5.9529 C   0  0  0  0  0  0  0  0  0  0  0  0
   19.0614   -0.7490   -5.5320 C   0  0  0  0  0  0  0  0  0  0  0  0
   20.9304   -2.6918   -5.5772 S   0  0  0  0  0  0  0  0  0  0  0  0
   20.0796   -3.0423   -4.2675 C   0  0  0  0  0  0  0  0  0  0  0  0
   18.9859   -2.2048   -3.7149 C   0  0  1  0  0  0  0  0  0  0  0  0
   17.8589   -2.0571   -4.7229 C   0  0  0  0  0  0  0  0  0  0  0  0
   18.4542   -2.7891   -2.4211 C   0  0  0  0  0  0  0  0  0  0  0  0
   17.2166   -2.0183   -2.0110 C   0  0  0  0  0  0  0  0  0  0  0  0
   19.4785   -2.5742   -1.3233 C   0  0  0  0  0  0  0  0  0  0  0  0
   18.1840   -4.2283   -2.5963 C   0  0  0  0  0  0  0  0  0  0  0  0
   19.0957   -5.0539   -2.4029 O   0  0  0  0  0  0  0  0  0  0  0  0
   16.9390   -4.6859   -2.9713 O   0  0  0  0  0  0  0  0  0  0  0  0
   16.5950   -5.1584   -4.1749 N   0  0  0  0  0  0  0  0  0  0  0  0
   15.3090   -5.7190   -4.3166 C   0  0  0  0  0  0  0  0  0  0  0  0
   14.9458   -5.9401   -5.7438 C   0  0  0  0  0  0  0  0  0  0  0  0
   14.7431   -4.9175   -6.5148 C   0  0  0  0  0  0  0  0  0  0  0  0
   14.8503   -3.5607   -6.0637 C   0  0  0  0  0  0  0  0  0  0  0  0
   14.9570   -2.5639   -6.9219 C   0  0  0  0  0  0  0  0  0  0  0  0
   14.9743   -2.8188   -8.6419 Cl  0  0  0  0  0  0  0  0  0  0  0  0
   15.0663   -1.2138   -6.4063 C   0  0  0  0  0  0  0  0  0  0  0  0
   14.3697   -0.9152   -5.3400 C   0  0  0  0  0  0  0  0  0  0  0  0
   13.5594   -0.6745   -4.3338 C   0  0  0  0  0  0  0  0  0  0  0  0
   17.3804   -4.8781   -5.2869 C   0  0  0  0  0  0  0  0  0  0  0  0
   18.2206   -6.0172   -5.6227 C   0  0  0  0  0  0  0  0  0  0  0  0
   18.1473   -6.4559   -6.9095 C   0  0  0  0  0  0  0  0  0  0  0  0
   19.8141   -8.3101   -6.5711 S   0  0  0  0  0  0  0  0  0  0  0  0
   17.3144   -9.5547   -5.5370 I   0  0  0  0  0  0  0  0  0  0  0  0
   18.3393   -9.0610   -8.7307 C   0  0  0  0  0  0  0  0  0  0  0  0
   18.4612   -7.8443   -8.6993 C   0  0  0  0  0  0  0  0  0  0  0  0
   18.2250   -6.9857   -7.9729 C   0  0  0  0  0  0  0  0  0  0  0  0
   19.1970   -7.8419   -7.0596 C   0  0  0  0  0  0  0  0  0  0  0  0
   17.7459   -8.3176   -7.2887 O   0  0  0  0  0  0  0  0  0  0  0  0
  1  2  1  0
  2  3  1  0
  2  4  1  0
  2  5  1  0
  5  6  2  3
  6  7  1  0
  7  8  1  6
  7  9  1  0
  9 10  1  0
  9 11  1  0
  9 12  1  0
 12 13  2  0
 12 14  1  0
 14 15  1  0
 15 16  1  0
 16 17  1  0
 17 18  2  3
 18 19  1  0
 19 20  2  3
 20 21  1  0
 20 22  1  0
 22 23  2  0
 23 24  2  0
 15 25  1  0
 25 26  1  0
 26 27  2  3
 27 28  1  0
 28 29  1  0
 28 30  2  0
 30 31  1  0
 31 32  2  0
 32 33  1  0
 33 34  1  0
 32 27  1  0
 33 28  1  0
 34 31  1  0
M  END
>  <docking_score>  (3) 
-0.88900000000000001

$$$$
