
     RDKit          3D

 26 26  0  0  0  0  0  0  0  0999 V2000
   19.2497   -6.3349   -5.4669 C   0  0  0  0  0  0  0  0  0  0  0  0
   18.9208   -6.7735   -6.8664 C   0  0  1  0  0  0  0  0  0  0  0  0
   18.5051   -8.2258   -6.9280 C   0  0  0  0  0  0  0  0  0  0  0  0
   17.3472   -8.5246   -6.0309 C   0  0  1  0  0  0  0  0  0  0  0  0
   17.8049   -9.2654   -4.9480 O   0  0  0  0  0  0  0  0  0  0  0  0
   16.7281   -7.2582   -5.5363 C   0  0  2  0  0  0  0  0  0  0  0  0
   15.4870   -7.4860   -4.9364 O   0  0  0  0  0  0  0  0  0  0  0  0
   16.5266   -6.2270   -6.6178 C   0  0  1  0  0  0  0  0  0  0  0  0
   15.9873   -5.1009   -6.0065 O   0  0  0  0  0  0  0  0  0  0  0  0
   17.7787   -5.9401   -7.3877 C   0  0  1  0  0  0  0  0  0  0  0  0
   18.1073   -4.5552   -7.5194 N   0  0  0  0  0  0  0  0  0  0  0  0
   17.5890   -3.9694   -8.7365 C   0  0  0  0  0  3  0  0  0  0  0  0
   17.7508   -2.4670   -8.7395 C   0  0  0  0  0  0  0  0  0  0  0  0
   17.4950   -1.9577   -7.4688 O   0  0  0  0  0  0  0  0  0  0  0  0
   16.1287   -1.8567   -7.2392 C   0  0  0  0  0  0  0  0  0  0  0  0
   15.9162   -1.3266   -5.8358 C   0  0  0  0  0  3  0  0  0  0  0  0
   17.1602   -1.5777   -4.9890 C   0  0  0  0  0  0  0  0  0  0  0  0
   16.9338   -2.6224   -4.1160 O   0  0  0  0  0  0  0  0  0  0  0  0
   18.1283   -3.1986   -3.7301 C   0  0  2  0  0  0  0  0  0  0  0  0
   17.9267   -4.1084   -2.7008 O   0  0  0  0  0  0  0  0  0  0  0  0
   19.0377   -2.0589   -3.2484 C   0  0  0  0  0  3  0  0  0  0  0  0
   18.9972   -1.9902   -1.8451 O   0  0  0  0  0  0  0  0  0  0  0  0
   14.7527   -2.0727   -5.2086 C   0  0  0  0  0  3  0  0  0  0  0  0
   13.5922   -1.1198   -5.0411 C   0  0  0  0  0  3  0  0  0  0  0  0
   14.0927    0.1711   -5.0103 O   0  0  0  0  0  0  0  0  0  0  0  0
   13.7324    0.7879   -3.8862 O   0  0  0  0  0  0  0  0  0  0  0  0
  2  1  1  1
  2  3  1  0
  3  4  1  0
  4  5  1  1
  4  6  1  0
  6  7  1  6
  6  8  1  0
  8  9  1  1
  8 10  1  0
 10 11  1  1
 11 12  1  0
 12 13  1  0
 13 14  1  0
 14 15  1  0
 15 16  1  0
 16 17  1  0
 17 18  1  0
 18 19  1  0
 19 20  1  1
 19 21  1  0
 21 22  1  0
 16 23  1  0
 23 24  1  0
 24 25  1  0
 25 26  1  0
 10  2  1  0
M  RAD  5  12   2  16   2  21   2  23   2  24   2
M  END
>  <docking_score>  (1) 
-3.3410000000000002

$$$$

     RDKit          3D

 26 26  0  0  0  0  0  0  0  0999 V2000
   15.8084   -2.1394   -7.6740 C   0  0  0  0  0  0  0  0  0  0  0  0
   16.7636   -2.2555   -6.5192 C   0  0  1  0  0  0  0  0  0  0  0  0
   16.7365   -1.0336   -5.6292 C   0  0  0  0  0  0  0  0  0  0  0  0
   15.3660   -0.7385   -5.1100 C   0  0  1  0  0  0  0  0  0  0  0  0
   14.8809    0.3918   -5.7564 O   0  0  0  0  0  0  0  0  0  0  0  0
   14.4488   -1.8884   -5.3709 C   0  0  2  0  0  0  0  0  0  0  0  0
   13.2532   -1.7720   -4.6573 O   0  0  0  0  0  0  0  0  0  0  0  0
   15.0527   -3.2269   -5.0286 C   0  0  1  0  0  0  0  0  0  0  0  0
   14.1090   -4.1923   -5.3600 O   0  0  0  0  0  0  0  0  0  0  0  0
   16.3815   -3.4492   -5.6826 C   0  0  1  0  0  0  0  0  0  0  0  0
   16.5162   -4.6902   -6.3789 N   0  0  0  0  0  0  0  0  0  0  0  0
   17.6212   -5.4882   -5.8936 C   0  0  0  0  0  3  0  0  0  0  0  0
   18.9262   -5.0714   -6.5312 C   0  0  0  0  0  0  0  0  0  0  0  0
   19.7492   -4.4695   -5.5825 O   0  0  0  0  0  0  0  0  0  0  0  0
   19.2976   -4.7308   -4.2949 C   0  0  0  0  0  0  0  0  0  0  0  0
   20.5007   -4.8786   -3.3857 C   0  0  0  0  0  3  0  0  0  0  0  0
   20.8394   -6.3551   -3.2042 C   0  0  0  0  0  0  0  0  0  0  0  0
   21.3811   -6.8616   -4.3682 O   0  0  0  0  0  0  0  0  0  0  0  0
   20.8369   -8.0976   -4.6579 C   0  0  2  0  0  0  0  0  0  0  0  0
   20.4806   -8.1773   -5.9975 O   0  0  0  0  0  0  0  0  0  0  0  0
   19.5896   -8.2531   -3.7760 C   0  0  0  0  0  3  0  0  0  0  0  0
   18.4904   -8.6034   -4.5789 O   0  0  0  0  0  0  0  0  0  0  0  0
   20.1537   -4.2975   -2.0272 C   0  0  0  0  0  3  0  0  0  0  0  0
   18.8643   -3.5183   -2.1418 C   0  0  0  0  0  3  0  0  0  0  0  0
   19.0881   -2.2379   -1.6640 O   0  0  0  0  0  0  0  0  0  0  0  0
   20.2637   -2.1674   -1.0421 O   0  0  0  0  0  0  0  0  0  0  0  0
  2  1  1  6
  2  3  1  0
  3  4  1  0
  4  5  1  6
  4  6  1  0
  6  7  1  1
  6  8  1  0
  8  9  1  6
  8 10  1  0
 10 11  1  6
 11 12  1  0
 12 13  1  0
 13 14  1  0
 14 15  1  0
 15 16  1  0
 16 17  1  0
 17 18  1  0
 18 19  1  0
 19 20  1  6
 19 21  1  0
 21 22  1  0
 16 23  1  0
 23 24  1  0
 24 25  1  0
 25 26  1  0
 10  2  1  0
M  RAD  5  12   2  16   2  21   2  23   2  24   2
M  END
>  <docking_score>  (2) 
-3.2050000000000001

$$$$

     RDKit          3D

 26 26  0  0  0  0  0  0  0  0999 V2000
   17.6152   -1.5076   -2.3234 C   0  0  0  0  0  0  0  0  0  0  0  0
   18.2853   -2.3868   -3.3419 C   0  0  1  0  0  0  0  0  0  0  0  0
   19.3671   -1.6566   -4.1050 C   0  0  0  0  0  0  0  0  0  0  0  0
   20.4025   -1.0685   -3.2011 C   0  0  1  0  0  0  0  0  0  0  0  0
   20.2418    0.3115   -3.1815 O   0  0  0  0  0  0  0  0  0  0  0  0
   20.2510   -1.6029   -1.8143 C   0  0  2  0  0  0  0  0  0  0  0  0
   21.3593   -1.3038   -1.0179 O   0  0  0  0  0  0  0  0  0  0  0  0
   20.0477   -3.0962   -1.7660 C   0  0  1  0  0  0  0  0  0  0  0  0
   19.8823   -3.4382   -0.4288 O   0  0  0  0  0  0  0  0  0  0  0  0
   18.9215   -3.5579   -2.6386 C   0  0  1  0  0  0  0  0  0  0  0  0
   17.9714   -4.4152   -2.0019 N   0  0  0  0  0  0  0  0  0  0  0  0
   17.7244   -5.6300   -2.7479 C   0  0  0  0  0  3  0  0  0  0  0  0
   16.4323   -5.5475   -3.5268 C   0  0  0  0  0  0  0  0  0  0  0  0
   16.3764   -6.5733   -4.4671 O   0  0  0  0  0  0  0  0  0  0  0  0
   15.9875   -6.0886   -5.7095 C   0  0  0  0  0  0  0  0  0  0  0  0
   17.1904   -6.1103   -6.6306 C   0  0  0  0  0  3  0  0  0  0  0  0
   18.2212   -7.1122   -6.1195 C   0  0  0  0  0  0  0  0  0  0  0  0
   17.9810   -8.3567   -6.6656 O   0  0  0  0  0  0  0  0  0  0  0  0
   18.7006   -8.5203   -7.8331 C   0  0  2  0  0  0  0  0  0  0  0  0
   18.5312   -9.8015   -8.3409 O   0  0  0  0  0  0  0  0  0  0  0  0
   20.1776   -8.2892   -7.4824 C   0  0  0  0  0  3  0  0  0  0  0  0
   20.9377   -9.3909   -7.9115 O   0  0  0  0  0  0  0  0  0  0  0  0
   17.8238   -4.7310   -6.6306 C   0  0  0  0  0  3  0  0  0  0  0  0
   19.3203   -4.8786   -6.4850 C   0  0  0  0  0  3  0  0  0  0  0  0
   19.9081   -4.5444   -7.6936 O   0  0  0  0  0  0  0  0  0  0  0  0
   21.2249   -4.7382   -7.6451 O   0  0  0  0  0  0  0  0  0  0  0  0
  2  1  1  1
  2  3  1  0
  3  4  1  0
  4  5  1  1
  4  6  1  0
  6  7  1  1
  6  8  1  0
  8  9  1  1
  8 10  1  0
 10 11  1  1
 11 12  1  0
 12 13  1  0
 13 14  1  0
 14 15  1  0
 15 16  1  0
 16 17  1  0
 17 18  1  0
 18 19  1  0
 19 20  1  1
 19 21  1  0
 21 22  1  0
 16 23  1  0
 23 24  1  0
 24 25  1  0
 25 26  1  0
 10  2  1  0
M  RAD  5  12   2  16   2  21   2  23   2  24   2
M  END
>  <docking_score>  (3) 
-2.9300000000000002

$$$$
