
     RDKit          3D

 31 32  0  0  0  0  0  0  0  0999 V2000
    7.8107   12.9442    4.6146 C   0  0  0  0  0  0  0  0  0  0  0  0
    7.7258   11.9012    3.4972 C   0  0  0  0  0  3  0  0  0  0  0  0
    6.4146   12.0919    2.8159 C   0  0  0  0  0  0  0  0  0  0  0  0
    6.5860   12.4578    1.3626 C   0  0  2  0  0  0  0  0  0  0  0  0
    6.8987   11.3035    0.6305 O   0  0  0  0  0  0  0  0  0  0  0  0
    7.5594   13.4391    1.2057 O   0  0  0  0  0  0  0  0  0  0  0  0
    7.7147   14.1351    2.4319 C   0  0  0  0  0  3  0  0  0  0  0  0
    6.4010   14.6162    2.9397 C   0  0  0  0  0  0  0  0  0  0  0  0
    6.3456   14.7361    4.3247 O   0  0  0  0  0  0  0  0  0  0  0  0
    6.4957   13.4832    5.0117 C   0  0  2  0  0  0  0  0  0  0  0  0
    6.3285   13.8545    6.5107 C   0  0  0  0  0  0  0  0  0  0  0  0
    5.1462   12.9379    7.0993 C   0  0  0  0  0  0  0  0  0  0  0  0
    4.9864   11.9565    5.9011 C   0  0  0  0  0  0  0  0  0  0  0  0
    4.2104   10.7305    6.1513 C   0  0  1  0  0  0  0  0  0  0  0  0
    2.7884   10.5882    5.8297 C   0  0  0  0  0  2  0  0  0  0  0  0
    5.0383    9.5289    5.7518 C   0  0  0  0  0  0  0  0  0  0  0  0
    4.5000    8.9212    4.5081 C   0  0  0  0  0  0  0  0  0  0  0  0
    3.5961    9.8077    3.7284 C   0  0  0  0  0  3  0  0  0  0  0  0
    2.6894   10.5883    4.3798 O   0  0  0  0  0  0  0  0  0  0  0  0
    4.1875   10.5509    7.7456 C   0  0  0  0  0  0  0  0  0  0  0  0
    2.8076   10.3264    8.0947 O   0  0  0  0  0  0  0  0  0  0  0  0
    2.7990   11.1254    9.3476 C   0  0  0  0  0  3  0  0  0  0  0  0
    2.6334    9.9073   10.4071 C   0  0  0  0  0  0  0  0  0  0  0  0
    3.8166   10.0759   11.1495 O   0  0  0  0  0  0  0  0  0  0  0  0
    3.4899   10.1831   12.4289 O   0  0  0  0  0  0  0  0  0  0  0  0
    2.2591   11.1991   12.8596 S   0  0  0  0  0  0  0  0  0  0  0  0
    2.5695   11.9282   14.4919 C   0  0  0  0  0  3  0  0  0  0  0  0
    3.9573   11.5721   14.9096 C   0  0  0  0  0  3  0  0  0  0  0  0
    4.0342   10.6542   15.9139 O   0  0  0  0  0  0  0  0  0  0  0  0
    4.8581   12.6998   14.9475 C   0  0  0  0  0  0  0  0  0  0  0  0
    5.0013   13.5528   13.9008 C   0  0  0  0  0  3  0  0  0  0  0  0
  1  2  1  0
  2  3  1  0
  3  4  1  0
  4  5  1  6
  4  6  1  0
  6  7  1  0
  7  8  1  0
  8  9  1  0
  9 10  1  0
 10 11  1  1
 11 12  1  0
 12 13  1  0
 14 13  1  1
 14 15  1  0
 14 16  1  0
 16 17  1  0
 17 18  1  0
 18 19  1  0
 14 20  1  0
 20 21  1  0
 21 22  1  0
 22 23  1  0
 23 24  1  0
 24 25  1  0
 25 26  1  0
 26 27  1  0
 27 28  1  0
 28 29  1  0
 28 30  1  0
 30 31  2  0
 10  1  1  0
 19 15  1  0
M  RAD  8   2   2   7   2  15   3  18   2  22   2  27   2  28   2  31   2
M  END
>  <docking_score>  (1) 
-2.9670000000000001

$$$$

     RDKit          3D

 31 32  0  0  0  0  0  0  0  0999 V2000
   17.2879   -6.6137   -6.9314 C   0  0  0  0  0  0  0  0  0  0  0  0
   17.8966   -7.9795   -7.2596 C   0  0  0  0  0  3  0  0  0  0  0  0
   18.3935   -7.9141   -8.6627 C   0  0  0  0  0  0  0  0  0  0  0  0
   19.8844   -8.1302   -8.7398 C   0  0  2  0  0  0  0  0  0  0  0  0
   20.1590   -9.4993   -8.6128 O   0  0  0  0  0  0  0  0  0  0  0  0
   20.5482   -7.3859   -7.7700 O   0  0  0  0  0  0  0  0  0  0  0  0
   19.7186   -6.3079   -7.3678 C   0  0  0  0  0  3  0  0  0  0  0  0
   19.2413   -5.5360   -8.5473 C   0  0  0  0  0  0  0  0  0  0  0  0
   18.0155   -4.9090   -8.3479 O   0  0  0  0  0  0  0  0  0  0  0  0
   16.9335   -5.8289   -8.1297 C   0  0  2  0  0  0  0  0  0  0  0  0
   15.6828   -4.9158   -8.0090 C   0  0  0  0  0  0  0  0  0  0  0  0
   15.1979   -4.9725   -6.4773 C   0  0  0  0  0  0  0  0  0  0  0  0
   16.4981   -4.4527   -5.7963 C   0  0  0  0  0  0  0  0  0  0  0  0
   16.4314   -3.1177   -5.1791 C   0  0  1  0  0  0  0  0  0  0  0  0
   17.0757   -1.9284   -5.7416 C   0  0  0  0  0  2  0  0  0  0  0  0
   15.0199   -2.8634   -4.6978 C   0  0  0  0  0  0  0  0  0  0  0  0
   14.3519   -1.8585   -5.5638 C   0  0  0  0  0  0  0  0  0  0  0  0
   15.0034   -1.6504   -6.8841 C   0  0  0  0  0  3  0  0  0  0  0  0
   16.3625   -1.6115   -6.9676 O   0  0  0  0  0  0  0  0  0  0  0  0
   17.1977   -3.2512   -3.7757 C   0  0  0  0  0  0  0  0  0  0  0  0
   16.5196   -4.3001   -3.0572 O   0  0  0  0  0  0  0  0  0  0  0  0
   17.5009   -4.4328   -1.9491 C   0  0  0  0  0  3  0  0  0  0  0  0
   18.7824   -4.9140   -2.8208 C   0  0  0  0  0  0  0  0  0  0  0  0
   19.8135   -4.6180   -1.9103 O   0  0  0  0  0  0  0  0  0  0  0  0
   19.9772   -3.3036   -1.8845 O   0  0  0  0  0  0  0  0  0  0  0  0
   21.3193   -2.6488   -2.5934 S   0  0  0  0  0  0  0  0  0  0  0  0
   20.8841   -1.8164   -4.1459 C   0  0  0  0  0  3  0  0  0  0  0  0
   20.0862   -0.5985   -3.8187 C   0  0  0  0  0  3  0  0  0  0  0  0
   19.7412    0.1647   -4.8937 O   0  0  0  0  0  0  0  0  0  0  0  0
   20.5221    0.0742   -2.6179 C   0  0  0  0  0  0  0  0  0  0  0  0
   21.3808    1.1257   -2.6433 C   0  0  0  0  0  3  0  0  0  0  0  0
  1  2  1  0
  2  3  1  0
  3  4  1  0
  4  5  1  1
  4  6  1  0
  6  7  1  0
  7  8  1  0
  8  9  1  0
  9 10  1  0
 10 11  1  1
 11 12  1  0
 12 13  1  0
 14 13  1  6
 14 15  1  0
 14 16  1  0
 16 17  1  0
 17 18  1  0
 18 19  1  0
 14 20  1  0
 20 21  1  0
 21 22  1  0
 22 23  1  0
 23 24  1  0
 24 25  1  0
 25 26  1  0
 26 27  1  0
 27 28  1  0
 28 29  1  0
 28 30  1  0
 30 31  2  0
 10  1  1  0
 19 15  1  0
M  RAD  8   2   2   7   2  15   3  18   2  22   2  27   2  28   2  31   2
M  END
>  <docking_score>  (2) 
-2.895

$$$$

     RDKit          3D

 31 32  0  0  0  0  0  0  0  0999 V2000
   19.8217   -1.6483   -4.7323 C   0  0  0  0  0  0  0  0  0  0  0  0
   19.2751   -1.7752   -3.3079 C   0  0  0  0  0  3  0  0  0  0  0  0
   18.9566   -3.2136   -3.0853 C   0  0  0  0  0  0  0  0  0  0  0  0
   19.7740   -3.8013   -1.9621 C   0  0  2  0  0  0  0  0  0  0  0  0
   19.2276   -3.3991   -0.7350 O   0  0  0  0  0  0  0  0  0  0  0  0
   21.1106   -3.4310   -2.0696 O   0  0  0  0  0  0  0  0  0  0  0  0
   21.3822   -3.0692   -3.4140 C   0  0  0  0  0  3  0  0  0  0  0  0
   20.9394   -4.1371   -4.3514 C   0  0  0  0  0  0  0  0  0  0  0  0
   20.5924   -3.6660   -5.6137 O   0  0  0  0  0  0  0  0  0  0  0  0
   19.4579   -2.7844   -5.6009 C   0  0  2  0  0  0  0  0  0  0  0  0
   19.2210   -2.4556   -7.1004 C   0  0  0  0  0  0  0  0  0  0  0  0
   17.8543   -1.6141   -7.1932 C   0  0  0  0  0  0  0  0  0  0  0  0
   16.8657   -2.7915   -7.4395 C   0  0  0  0  0  0  0  0  0  0  0  0
   15.6540   -2.8216   -6.6036 C   0  0  1  0  0  0  0  0  0  0  0  0
   15.6767   -2.8885   -5.1404 C   0  0  0  0  0  2  0  0  0  0  0  0
   14.6545   -1.8218   -7.1423 C   0  0  0  0  0  0  0  0  0  0  0  0
   14.5509   -0.6530   -6.2317 C   0  0  0  0  0  0  0  0  0  0  0  0
   15.6836   -0.5099   -5.2791 C   0  0  0  0  0  3  0  0  0  0  0  0
   16.2019   -1.6156   -4.6756 O   0  0  0  0  0  0  0  0  0  0  0  0
   14.9128   -4.1978   -6.9655 C   0  0  0  0  0  0  0  0  0  0  0  0
   13.9811   -4.4351   -5.8922 O   0  0  0  0  0  0  0  0  0  0  0  0
   14.9744   -4.8627   -4.8730 C   0  0  0  0  0  3  0  0  0  0  0  0
   14.6157   -6.4450   -4.8383 C   0  0  0  0  0  0  0  0  0  0  0  0
   15.6695   -6.9447   -5.6254 O   0  0  0  0  0  0  0  0  0  0  0  0
   16.8056   -6.4494   -5.1573 O   0  0  0  0  0  0  0  0  0  0  0  0
   18.0958   -6.2982   -6.1796 S   0  0  0  0  0  0  0  0  0  0  0  0
   18.9072   -7.9015   -6.4313 C   0  0  0  0  0  3  0  0  0  0  0  0
   18.7437   -8.7114   -5.1884 C   0  0  0  0  0  3  0  0  0  0  0  0
   17.5654   -9.3902   -5.0994 O   0  0  0  0  0  0  0  0  0  0  0  0
   19.2451   -8.0592   -4.0020 C   0  0  0  0  0  0  0  0  0  0  0  0
   20.5699   -7.8495   -3.7910 C   0  0  0  0  0  3  0  0  0  0  0  0
  1  2  1  0
  2  3  1  0
  3  4  1  0
  4  5  1  1
  4  6  1  0
  6  7  1  0
  7  8  1  0
  8  9  1  0
  9 10  1  0
 10 11  1  6
 11 12  1  0
 12 13  1  0
 14 13  1  6
 14 15  1  0
 14 16  1  0
 16 17  1  0
 17 18  1  0
 18 19  1  0
 14 20  1  0
 20 21  1  0
 21 22  1  0
 22 23  1  0
 23 24  1  0
 24 25  1  0
 25 26  1  0
 26 27  1  0
 27 28  1  0
 28 29  1  0
 28 30  1  0
 30 31  2  0
 10  1  1  0
 19 15  1  0
M  RAD  8   2   2   7   2  15   3  18   2  22   2  27   2  28   2  31   2
M  END
>  <docking_score>  (3) 
-2.0649999999999999

$$$$
