
     RDKit          3D

 29 29  0  0  0  0  0  0  0  0999 V2000
   14.3697   -0.5152   -3.2397 C   0  0  0  0  0  0  0  0  0  0  0  0
   13.8902   -0.7518   -4.6346 C   0  0  0  0  0  0  0  0  0  0  0  0
   13.9199    0.4997   -5.4829 C   0  0  0  0  0  0  0  0  0  0  0  0
   14.5585   -1.9155   -5.2933 C   0  0  0  0  0  0  0  0  0  0  0  0
   15.7011   -2.3717   -4.4110 C   0  0  2  0  0  0  0  0  0  0  0  0
   16.9955   -1.8894   -4.9395 C   0  0  0  0  0  0  0  0  0  0  0  0
   17.0725   -0.9641   -5.7478 O   0  0  0  0  0  0  0  0  0  0  0  0
   18.2832   -2.5049   -4.5160 C   0  0  0  0  0  3  0  0  0  0  0  0
   18.5910   -2.0050   -3.1007 C   0  0  0  0  0  0  0  0  0  0  0  0
   20.0156   -1.5333   -2.9769 C   0  0  1  0  0  0  0  0  0  0  0  0
   20.1490   -0.8087   -1.6581 C   0  0  0  0  0  0  0  0  0  0  0  0
   20.9651   -2.7274   -2.9746 C   0  0  0  0  0  0  0  0  0  0  0  0
   20.9052   -3.4232   -4.3223 C   0  0  0  0  0  3  0  0  0  0  0  0
   20.1176   -4.7209   -4.2237 C   0  0  0  0  0  3  0  0  0  0  0  0
   19.9106   -5.1358   -2.7843 C   0  0  0  0  0  0  0  0  0  0  0  0
   18.4436   -5.3577   -2.5446 C   0  0  0  0  0  0  0  0  0  0  0  0
   17.9012   -6.2781   -3.4539 O   0  0  0  0  0  0  0  0  0  0  0  0
   16.6885   -5.7249   -3.8806 C   0  0  2  0  0  0  0  0  0  0  0  0
   16.1623   -6.4507   -5.1057 C   0  0  0  0  0  0  0  0  0  0  0  0
   17.1961   -7.4022   -5.6350 C   0  0  1  0  0  0  0  0  0  0  0  0
   16.7677   -8.7172   -5.5037 O   0  0  0  0  0  0  0  0  0  0  0  0
   17.4191   -7.0680   -7.0948 C   0  0  0  0  0  3  0  0  0  0  0  0
   17.8794   -5.6750   -7.1675 N   0  0  0  0  0  0  0  0  0  0  0  0
   19.0594   -5.3389   -7.8421 C   0  0  0  0  0  0  0  0  0  0  0  0
   20.0761   -5.0274   -8.4252 C   0  0  0  0  0  0  0  0  0  0  0  0
   15.6378   -3.8029   -4.3122 N   0  0  0  0  0  0  0  0  0  0  0  0
   16.8510   -4.3691   -4.1307 O   0  0  0  0  0  0  0  0  0  0  0  0
   14.9440   -4.3208   -5.4553 C   0  0  0  0  0  0  0  0  0  0  0  0
   15.5009   -3.9404   -6.6575 F   0  0  0  0  0  0  0  0  0  0  0  0
  1  2  1  0
  2  3  1  0
  2  4  1  0
  5  4  1  6
  5  6  1  0
  6  7  2  0
  6  8  1  0
  8  9  1  0
  9 10  1  0
 10 11  1  1
 10 12  1  0
 12 13  1  0
 13 14  1  0
 14 15  1  0
 15 16  1  0
 16 17  1  0
 17 18  1  0
 18 19  1  6
 19 20  1  0
 20 21  1  6
 20 22  1  0
 22 23  1  0
 23 24  1  0
 24 25  3  0
  5 26  1  0
 26 27  1  0
 26 28  1  0
 28 29  1  0
 27 18  1  0
M  RAD  4   8   2  13   2  14   2  22   2
M  END
>  <docking_score>  (1) 
-5.0220000000000002

$$$$

     RDKit          3D

 29 29  0  0  0  0  0  0  0  0999 V2000
   20.9054   -3.5885   -0.9197 C   0  0  0  0  0  0  0  0  0  0  0  0
   19.4872   -3.3070   -1.2951 C   0  0  0  0  0  0  0  0  0  0  0  0
   19.2536   -1.8558   -1.6499 C   0  0  0  0  0  0  0  0  0  0  0  0
   18.9574   -4.2495   -2.3275 C   0  0  0  0  0  0  0  0  0  0  0  0
   18.5503   -3.4453   -3.5438 C   0  0  2  0  0  0  0  0  0  0  0  0
   17.1560   -3.7510   -3.9309 C   0  0  0  0  0  0  0  0  0  0  0  0
   16.3615   -4.2881   -3.1590 O   0  0  0  0  0  0  0  0  0  0  0  0
   16.6382   -3.4212   -5.2872 C   0  0  0  0  0  3  0  0  0  0  0  0
   16.3975   -1.9088   -5.3348 C   0  0  0  0  0  0  0  0  0  0  0  0
   15.0483   -1.5801   -5.9170 C   0  0  1  0  0  0  0  0  0  0  0  0
   14.7832   -0.1138   -5.6688 C   0  0  0  0  0  0  0  0  0  0  0  0
   15.0527   -1.8261   -7.4226 C   0  0  0  0  0  0  0  0  0  0  0  0
   15.2380   -3.3084   -7.6920 C   0  0  0  0  0  3  0  0  0  0  0  0
   16.6522   -3.5955   -8.1735 C   0  0  0  0  0  3  0  0  0  0  0  0
   17.3679   -2.3267   -8.5794 C   0  0  0  0  0  0  0  0  0  0  0  0
   18.6739   -2.2431   -7.8403 C   0  0  0  0  0  0  0  0  0  0  0  0
   19.4574   -3.3901   -8.0372 O   0  0  0  0  0  0  0  0  0  0  0  0
   19.9553   -3.7344   -6.7754 C   0  0  2  0  0  0  0  0  0  0  0  0
   20.5408   -5.1350   -6.7868 C   0  0  0  0  0  0  0  0  0  0  0  0
   20.1979   -5.8356   -8.0696 C   0  0  1  0  0  0  0  0  0  0  0  0
   21.2549   -6.6308   -8.4938 O   0  0  0  0  0  0  0  0  0  0  0  0
   18.9733   -6.6877   -7.8110 C   0  0  0  0  0  3  0  0  0  0  0  0
   19.4348   -7.9959   -7.3280 N   0  0  0  0  0  0  0  0  0  0  0  0
   19.1125   -9.1733   -8.0135 C   0  0  0  0  0  0  0  0  0  0  0  0
   18.8474  -10.2036   -8.5957 C   0  0  0  0  0  0  0  0  0  0  0  0
   19.4930   -3.7217   -4.5912 N   0  0  0  0  0  0  0  0  0  0  0  0
   18.9508   -3.6172   -5.8243 O   0  0  0  0  0  0  0  0  0  0  0  0
   20.0969   -5.0001   -4.3520 C   0  0  0  0  0  0  0  0  0  0  0  0
   19.2207   -6.0565   -4.4796 F   0  0  0  0  0  0  0  0  0  0  0  0
  1  2  1  0
  2  3  1  0
  2  4  1  0
  5  4  1  1
  5  6  1  0
  6  7  2  0
  6  8  1  0
  8  9  1  0
  9 10  1  0
 10 11  1  6
 10 12  1  0
 12 13  1  0
 13 14  1  0
 14 15  1  0
 15 16  1  0
 16 17  1  0
 17 18  1  0
 18 19  1  6
 19 20  1  0
 20 21  1  1
 20 22  1  0
 22 23  1  0
 23 24  1  0
 24 25  3  0
  5 26  1  0
 26 27  1  0
 26 28  1  0
 28 29  1  0
 27 18  1  0
M  RAD  4   8   2  13   2  14   2  22   2
M  END
>  <docking_score>  (2) 
-4.3879999999999999

$$$$

     RDKit          3D

 29 29  0  0  0  0  0  0  0  0999 V2000
    6.9537   15.9847    3.9217 C   0  0  0  0  0  0  0  0  0  0  0  0
    6.8613   14.6766    3.2062 C   0  0  0  0  0  0  0  0  0  0  0  0
    7.7246   14.6268    1.9657 C   0  0  0  0  0  0  0  0  0  0  0  0
    7.0701   13.5016    4.1064 C   0  0  0  0  0  0  0  0  0  0  0  0
    5.8046   13.2840    4.9084 C   0  0  2  0  0  0  0  0  0  0  0  0
    6.0748   13.4097    6.3571 C   0  0  0  0  0  0  0  0  0  0  0  0
    7.0826   13.9664    6.7926 O   0  0  0  0  0  0  0  0  0  0  0  0
    5.1317   12.8637    7.3714 C   0  0  0  0  0  3  0  0  0  0  0  0
    3.9277   13.8089    7.4392 C   0  0  0  0  0  0  0  0  0  0  0  0
    3.5683   14.1481    8.8615 C   0  0  1  0  0  0  0  0  0  0  0  0
    2.5731   15.2840    8.8279 C   0  0  0  0  0  0  0  0  0  0  0  0
    2.9140   12.9472    9.5377 C   0  0  0  0  0  0  0  0  0  0  0  0
    3.9240   11.8201    9.6536 C   0  0  0  0  0  3  0  0  0  0  0  0
    3.6367   10.7323    8.6298 C   0  0  0  0  0  3  0  0  0  0  0  0
    2.2599   10.8902    8.0246 C   0  0  0  0  0  0  0  0  0  0  0  0
    2.3833   10.9185    6.5270 C   0  0  0  0  0  0  0  0  0  0  0  0
    3.0600    9.7905    6.0393 O   0  0  0  0  0  0  0  0  0  0  0  0
    3.9647   10.2700    5.0853 C   0  0  2  0  0  0  0  0  0  0  0  0
    4.9852    9.2063    4.7224 C   0  0  0  0  0  0  0  0  0  0  0  0
    4.2956    7.9504    4.2739 C   0  0  1  0  0  0  0  0  0  0  0  0
    4.7260    7.5783    3.0066 O   0  0  0  0  0  0  0  0  0  0  0  0
    4.6249    6.8656    5.2776 C   0  0  0  0  0  3  0  0  0  0  0  0
    3.4778    6.7360    6.1859 N   0  0  0  0  0  0  0  0  0  0  0  0
    3.0982    5.4886    6.6960 C   0  0  0  0  0  0  0  0  0  0  0  0
    2.7566    4.4179    7.1516 C   0  0  0  0  0  0  0  0  0  0  0  0
    5.2707   12.0000    4.5502 N   0  0  0  0  0  0  0  0  0  0  0  0
    4.5832   11.4194    5.5581 O   0  0  0  0  0  0  0  0  0  0  0  0
    6.3312   11.1755    4.0487 C   0  0  0  0  0  0  0  0  0  0  0  0
    6.3195   11.0353    2.6774 F   0  0  0  0  0  0  0  0  0  0  0  0
  1  2  1  0
  2  3  1  0
  2  4  1  0
  5  4  1  6
  5  6  1  0
  6  7  2  0
  6  8  1  0
  8  9  1  0
  9 10  1  0
 10 11  1  6
 10 12  1  0
 12 13  1  0
 13 14  1  0
 14 15  1  0
 15 16  1  0
 16 17  1  0
 17 18  1  0
 18 19  1  1
 19 20  1  0
 20 21  1  6
 20 22  1  0
 22 23  1  0
 23 24  1  0
 24 25  3  0
  5 26  1  0
 26 27  1  0
 26 28  1  0
 28 29  1  0
 27 18  1  0
M  RAD  4   8   2  13   2  14   2  22   2
M  END
>  <docking_score>  (3) 
-3.5920000000000001

$$$$
