
     RDKit          3D

 17 16  0  0  0  0  0  0  0  0999 V2000
    7.3588    3.1060   28.0441 C   0  0  0  0  0  0  0  0  0  0  0  0
    7.0050    1.6445   27.8445 C   0  0  0  0  0  0  0  0  0  0  0  0
    6.0490    1.4966   26.6868 C   0  0  0  0  0  0  0  0  0  0  0  0
    6.2307    0.1684   26.0529 C   0  0  0  0  0  0  0  0  0  0  0  0
    6.9138    0.1612   24.7456 C   0  0  0  0  0  0  0  0  0  0  0  0
    7.2799   -0.8622   24.1509 O   0  0  0  0  0  0  0  0  0  0  0  0
    7.1705    1.4247   24.1326 N   0  0  0  0  0  0  0  0  0  0  0  0
    7.8702    1.4746   22.8591 C   0  0  0  0  0  3  0  0  0  0  0  0
    9.3599    1.7413   23.0685 C   0  0  0  0  0  0  0  0  0  0  0  0
   10.1378    0.7683   22.3047 C   0  0  0  0  0  0  0  0  0  0  0  0
   11.3853    0.8010   22.3147 O   0  0  0  0  0  0  0  0  0  0  0  0
    9.4875   -0.2502   21.5079 N   0  0  0  0  0  0  0  0  0  0  0  0
   10.1941   -1.1812   20.7344 C   0  0  0  0  0  0  0  0  0  0  0  0
   10.2868   -1.3157   19.4568 C   0  0  0  0  0  0  0  0  0  0  0  0
    9.6386   -0.4667   18.4794 C   0  0  0  0  0  0  0  0  0  0  0  0
    8.2914   -0.8809   18.0436 C   0  0  0  0  0  0  0  0  0  0  0  0
    8.0416   -1.0397   16.8783 O   0  0  0  0  0  0  0  0  0  0  0  0
  1  2  1  0
  2  3  1  0
  3  4  1  0
  4  5  1  0
  5  6  2  0
  5  7  1  0
  7  8  1  0
  8  9  1  0
  9 10  1  0
 10 11  2  0
 10 12  1  0
 12 13  1  0
 13 14  2  3
 14 15  1  0
 15 16  1  0
 16 17  2  0
M  RAD  1   8   2
M  END
>  <docking_score>  (1) 
-4.5810000000000004

$$$$

     RDKit          3D

 17 16  0  0  0  0  0  0  0  0999 V2000
    7.2929    1.9485   27.1516 C   0  0  0  0  0  0  0  0  0  0  0  0
    6.2104    1.1015   26.5098 C   0  0  0  0  0  0  0  0  0  0  0  0
    6.2588    1.2495   25.0091 C   0  0  0  0  0  0  0  0  0  0  0  0
    7.5952    0.8467   24.5083 C   0  0  0  0  0  0  0  0  0  0  0  0
    7.6091   -0.1829   23.4521 C   0  0  0  0  0  0  0  0  0  0  0  0
    7.6363    0.0585   22.2372 O   0  0  0  0  0  0  0  0  0  0  0  0
    7.5851   -1.5487   23.8669 N   0  0  0  0  0  0  0  0  0  0  0  0
    7.5647   -2.6020   22.8650 C   0  0  0  0  0  3  0  0  0  0  0  0
    8.9529   -3.2173   22.6962 C   0  0  0  0  0  0  0  0  0  0  0  0
    9.2154   -3.4373   21.2757 C   0  0  0  0  0  0  0  0  0  0  0  0
    9.3435   -4.5932   20.8229 O   0  0  0  0  0  0  0  0  0  0  0  0
    9.3459   -2.3258   20.3577 N   0  0  0  0  0  0  0  0  0  0  0  0
    9.6303   -2.4903   18.9953 C   0  0  0  0  0  0  0  0  0  0  0  0
    8.9853   -2.1055   17.9489 C   0  0  0  0  0  0  0  0  0  0  0  0
    7.7434   -1.3613   17.9613 C   0  0  0  0  0  0  0  0  0  0  0  0
    7.8613    0.1092   17.9500 C   0  0  0  0  0  0  0  0  0  0  0  0
    8.7468    0.6617   18.5467 O   0  0  0  0  0  0  0  0  0  0  0  0
  1  2  1  0
  2  3  1  0
  3  4  1  0
  4  5  1  0
  5  6  2  0
  5  7  1  0
  7  8  1  0
  8  9  1  0
  9 10  1  0
 10 11  2  0
 10 12  1  0
 12 13  1  0
 13 14  2  3
 14 15  1  0
 15 16  1  0
 16 17  2  0
M  RAD  1   8   2
M  END
>  <docking_score>  (2) 
-4.5049999999999999

$$$$

     RDKit          3D

 17 16  0  0  0  0  0  0  0  0999 V2000
    6.8644    2.3923   29.4525 C   0  0  0  0  0  0  0  0  0  0  0  0
    7.2300    2.8546   28.0547 C   0  0  0  0  0  0  0  0  0  0  0  0
    7.1728    1.6930   27.0937 C   0  0  0  0  0  0  0  0  0  0  0  0
    7.6602    2.1209   25.7601 C   0  0  0  0  0  0  0  0  0  0  0  0
    7.4256    1.1780   24.6503 C   0  0  0  0  0  0  0  0  0  0  0  0
    6.6656    0.2013   24.7082 O   0  0  0  0  0  0  0  0  0  0  0  0
    8.1300    1.4120   23.4308 N   0  0  0  0  0  0  0  0  0  0  0  0
    7.9592    0.4935   22.3167 C   0  0  0  0  0  3  0  0  0  0  0  0
    9.2451    0.3880   21.4985 C   0  0  0  0  0  0  0  0  0  0  0  0
    9.3073    1.4975   20.5495 C   0  0  0  0  0  0  0  0  0  0  0  0
    9.1800    1.2960   19.3245 O   0  0  0  0  0  0  0  0  0  0  0  0
    9.5293    2.8553   20.9990 N   0  0  0  0  0  0  0  0  0  0  0  0
    9.6292    3.9433   20.1213 C   0  0  0  0  0  0  0  0  0  0  0  0
   10.3518    5.0079   20.1800 C   0  0  0  0  0  0  0  0  0  0  0  0
   11.2868    5.3241   21.2393 C   0  0  0  0  0  0  0  0  0  0  0  0
   12.7015    5.4614   20.8443 C   0  0  0  0  0  0  0  0  0  0  0  0
   13.0008    5.8735   19.7551 O   0  0  0  0  0  0  0  0  0  0  0  0
  1  2  1  0
  2  3  1  0
  3  4  1  0
  4  5  1  0
  5  6  2  0
  5  7  1  0
  7  8  1  0
  8  9  1  0
  9 10  1  0
 10 11  2  0
 10 12  1  0
 12 13  1  0
 13 14  2  3
 14 15  1  0
 15 16  1  0
 16 17  2  0
M  RAD  1   8   2
M  END
>  <docking_score>  (3) 
-4.1959999999999997

$$$$
