
     RDKit          3D

 29 34  0  0  0  0  0  0  0  0999 V2000
   13.6145   -0.4030   -3.8118 C   0  0  0  0  0  0  0  0  0  0  0  0
   13.9298   -1.0104   -5.0205 O   0  0  0  0  0  0  0  0  0  0  0  0
   14.3957   -2.3235   -5.1468 C   0  0  0  0  0  0  0  0  0  0  0  0
   13.7713   -3.3024   -5.9194 C   0  0  0  0  0  0  0  0  0  0  0  0
   14.3139   -4.6203   -6.0041 C   0  0  0  0  0  0  0  0  0  0  0  0
   15.4157   -4.7963   -5.2975 C   0  0  0  0  0  0  0  0  0  0  0  0
   15.9714   -3.8005   -4.5570 C   0  0  0  0  0  0  0  0  0  0  0  0
   15.5380   -2.5553   -4.4295 C   0  0  0  0  0  0  0  0  0  0  0  0
   16.3721   -1.8341   -3.6032 O   0  0  0  0  0  0  0  0  0  0  0  0
   17.5169   -2.4534   -2.9513 C   0  0  1  0  0  0  0  0  0  0  0  0
   18.5953   -1.4749   -2.6056 C   0  0  0  0  0  0  0  0  0  0  0  0
   19.3641   -1.2515   -3.9327 C   0  0  0  0  0  0  0  0  0  0  0  0
   20.6549   -1.8394   -3.9435 N   0  0  0  0  0  0  0  0  0  0  0  0
   20.8690   -2.9339   -4.8658 C   0  0  0  0  0  0  0  0  0  0  0  0
   17.0325   -3.5757   -2.1496 C   0  0  0  0  0  0  0  0  0  0  0  0
   18.0299   -3.6976   -3.2222 C   0  0  1  0  0  0  0  0  0  0  0  0
   17.6531   -3.9834   -4.6932 N   0  0  0  0  0  0  0  0  0  0  0  0
   17.6042   -5.1266   -4.9240 N   0  0  0  0  0  0  0  0  0  0  0  0
   16.1510   -5.9908   -5.3470 C   0  0  0  0  0  0  0  0  0  0  0  0
   17.0135   -6.7662   -5.1113 C   0  0  0  0  0  0  0  0  0  0  0  0
   17.7038   -7.3808   -4.9077 C   0  0  0  0  0  0  0  0  0  0  0  0
   18.6680   -8.2684   -4.6170 C   0  0  0  0  0  0  0  0  0  0  0  0
   19.5069   -7.2463   -3.4955 C   0  0  0  0  0  0  0  0  0  0  0  0
   19.2031   -5.8225   -3.8924 C   0  0  2  0  0  0  0  0  0  0  0  0
   20.3413   -5.3002   -4.8164 C   0  0  0  0  0  0  0  0  0  0  0  0
   20.8591   -4.2386   -4.2270 C   0  0  0  0  0  0  0  0  0  0  0  0
   21.3822   -4.4379   -2.8582 C   0  0  0  0  0  0  0  0  0  0  0  0
   20.0980   -4.4341   -1.9917 C   0  0  0  0  0  0  0  0  0  0  0  0
   18.9358   -4.7481   -2.8792 C   0  0  1  0  0  0  0  0  0  0  0  0
  1  2  1  0
  2  3  1  0
  3  4  2  0
  4  5  1  0
  5  6  2  0
  6  7  1  0
  7  8  2  0
  8  9  1  0
  9 10  1  0
 10 11  1  0
 11 12  1  0
 12 13  1  0
 13 14  1  0
 10 15  1  1
 16 15  1  1
 16 17  1  0
 17 18  1  0
 18 19  2  3
 19 20  1  0
 20 21  3  0
 21 22  1  0
 22 23  1  0
 24 23  1  1
 24 25  1  0
 25 26  2  0
 26 27  1  0
 27 28  1  0
 29 28  1  6
  8  3  1  0
 19  6  1  0
 16 10  1  0
 26 14  1  0
 29 16  1  0
 29 24  1  0
M  END
>  <docking_score>  (1) 
-6.6749999999999998

$$$$

     RDKit          3D

 29 34  0  0  0  0  0  0  0  0999 V2000
   20.4518   -0.4230   -1.2878 C   0  0  0  0  0  0  0  0  0  0  0  0
   20.6255   -1.0762   -2.5012 O   0  0  0  0  0  0  0  0  0  0  0  0
   20.4258   -2.4471   -2.6960 C   0  0  0  0  0  0  0  0  0  0  0  0
   20.9714   -3.4389   -1.8812 C   0  0  0  0  0  0  0  0  0  0  0  0
   20.7141   -4.8190   -2.1411 C   0  0  0  0  0  0  0  0  0  0  0  0
   19.9441   -5.0355   -3.1920 C   0  0  0  0  0  0  0  0  0  0  0  0
   19.4490   -4.0223   -3.9517 C   0  0  0  0  0  0  0  0  0  0  0  0
   19.6329   -2.7222   -3.7770 C   0  0  0  0  0  0  0  0  0  0  0  0
   18.9625   -2.0039   -4.7430 O   0  0  0  0  0  0  0  0  0  0  0  0
   18.2274   -2.6674   -5.8100 C   0  0  1  0  0  0  0  0  0  0  0  0
   17.1292   -1.8242   -6.3781 C   0  0  0  0  0  0  0  0  0  0  0  0
   15.9613   -1.9670   -5.3692 C   0  0  0  0  0  0  0  0  0  0  0  0
   14.8807   -2.7424   -5.8621 N   0  0  0  0  0  0  0  0  0  0  0  0
   14.6253   -4.0050   -5.2025 C   0  0  0  0  0  0  0  0  0  0  0  0
   19.1559   -3.5368   -6.5305 C   0  0  0  0  0  0  0  0  0  0  0  0
   17.9253   -4.0049   -5.8772 C   0  0  1  0  0  0  0  0  0  0  0  0
   17.8830   -4.4883   -4.4103 N   0  0  0  0  0  0  0  0  0  0  0  0
   18.0942   -5.6324   -4.3145 N   0  0  0  0  0  0  0  0  0  0  0  0
   19.4932   -6.3197   -3.5347 C   0  0  0  0  0  0  0  0  0  0  0  0
   18.9250   -7.1656   -4.1367 C   0  0  0  0  0  0  0  0  0  0  0  0
   18.4734   -7.8339   -4.6318 C   0  0  0  0  0  0  0  0  0  0  0  0
   17.8509   -8.7948   -5.3327 C   0  0  0  0  0  0  0  0  0  0  0  0
   17.2043   -7.7318   -6.5402 C   0  0  0  0  0  0  0  0  0  0  0  0
   17.0697   -6.3731   -5.8978 C   0  0  2  0  0  0  0  0  0  0  0  0
   15.6206   -6.2110   -5.3537 C   0  0  0  0  0  0  0  0  0  0  0  0
   15.1008   -5.1552   -5.9516 C   0  0  0  0  0  0  0  0  0  0  0  0
   15.0764   -5.1841   -7.4300 C   0  0  0  0  0  0  0  0  0  0  0  0
   16.5344   -4.8229   -7.8086 C   0  0  0  0  0  0  0  0  0  0  0  0
   17.4067   -5.1054   -6.6268 C   0  0  1  0  0  0  0  0  0  0  0  0
  1  2  1  0
  2  3  1  0
  3  4  2  0
  4  5  1  0
  5  6  2  0
  6  7  1  0
  7  8  2  0
  8  9  1  0
  9 10  1  0
 10 11  1  0
 11 12  1  0
 12 13  1  0
 13 14  1  0
 10 15  1  6
 16 15  1  6
 16 17  1  0
 17 18  1  0
 18 19  2  3
 19 20  1  0
 20 21  3  0
 21 22  1  0
 22 23  1  0
 24 23  1  6
 24 25  1  0
 25 26  2  0
 26 27  1  0
 27 28  1  0
 29 28  1  1
  8  3  1  0
 19  6  1  0
 16 10  1  0
 26 14  1  0
 29 16  1  0
 29 24  1  0
M  END
>  <docking_score>  (2) 
-6.4950000000000001

$$$$

     RDKit          3D

 29 34  0  0  0  0  0  0  0  0999 V2000
   12.9873   -0.3640   -4.5963 C   0  0  0  0  0  0  0  0  0  0  0  0
   14.1423   -0.0237   -3.9039 O   0  0  0  0  0  0  0  0  0  0  0  0
   15.1101   -0.9418   -3.4825 C   0  0  0  0  0  0  0  0  0  0  0  0
   15.4329   -1.1779   -2.1464 C   0  0  0  0  0  0  0  0  0  0  0  0
   16.4287   -2.1390   -1.7959 C   0  0  0  0  0  0  0  0  0  0  0  0
   16.9837   -2.7427   -2.8311 C   0  0  0  0  0  0  0  0  0  0  0  0
   16.6289   -2.4611   -4.1131 C   0  0  0  0  0  0  0  0  0  0  0  0
   15.7156   -1.5934   -4.5227 C   0  0  0  0  0  0  0  0  0  0  0  0
   15.6289   -1.5941   -5.8978 O   0  0  0  0  0  0  0  0  0  0  0  0
   16.5044   -2.4226   -6.7140 C   0  0  1  0  0  0  0  0  0  0  0  0
   15.9205   -2.7524   -8.0519 C   0  0  0  0  0  0  0  0  0  0  0  0
   14.9356   -3.9167   -7.7753 C   0  0  0  0  0  0  0  0  0  0  0  0
   15.3858   -5.1671   -8.2712 N   0  0  0  0  0  0  0  0  0  0  0  0
   15.7024   -6.1850   -7.2923 C   0  0  0  0  0  0  0  0  0  0  0  0
   17.8880   -2.0695   -6.4007 C   0  0  0  0  0  0  0  0  0  0  0  0
   17.3297   -3.4220   -6.2614 C   0  0  1  0  0  0  0  0  0  0  0  0
   16.6762   -3.9323   -4.9576 N   0  0  0  0  0  0  0  0  0  0  0  0
   17.4506   -4.4279   -4.2384 N   0  0  0  0  0  0  0  0  0  0  0  0
   17.9003   -3.7945   -2.6782 C   0  0  0  0  0  0  0  0  0  0  0  0
   18.6529   -4.6555   -2.9833 C   0  0  0  0  0  0  0  0  0  0  0  0
   19.2592   -5.3353   -3.2400 C   0  0  0  0  0  0  0  0  0  0  0  0
   20.1335   -6.2925   -3.5886 C   0  0  0  0  0  0  0  0  0  0  0  0
   19.9841   -6.0441   -5.2981 C   0  0  0  0  0  0  0  0  0  0  0  0
   18.6113   -5.4644   -5.5358 C   0  0  2  0  0  0  0  0  0  0  0  0
   17.6268   -6.6189   -5.8822 C   0  0  0  0  0  0  0  0  0  0  0  0
   17.1287   -6.3551   -7.0758 C   0  0  0  0  0  0  0  0  0  0  0  0
   18.1066   -6.1898   -8.1728 C   0  0  0  0  0  0  0  0  0  0  0  0
   18.6379   -4.7517   -7.9508 C   0  0  0  0  0  0  0  0  0  0  0  0
   18.3660   -4.3681   -6.5309 C   0  0  1  0  0  0  0  0  0  0  0  0
  1  2  1  0
  2  3  1  0
  3  4  2  0
  4  5  1  0
  5  6  2  0
  6  7  1  0
  7  8  2  0
  8  9  1  0
  9 10  1  0
 10 11  1  0
 11 12  1  0
 12 13  1  0
 13 14  1  0
 10 15  1  6
 16 15  1  1
 16 17  1  0
 17 18  1  0
 18 19  2  3
 19 20  1  0
 20 21  3  0
 21 22  1  0
 22 23  1  0
 24 23  1  6
 24 25  1  0
 25 26  2  0
 26 27  1  0
 27 28  1  0
 29 28  1  6
  8  3  1  0
 19  6  1  0
 16 10  1  0
 26 14  1  0
 29 16  1  0
 29 24  1  0
M  END
>  <docking_score>  (3) 
-6.1959999999999997

$$$$
