
     RDKit          3D

 33 34  0  0  0  0  0  0  0  0999 V2000
   16.2914   -4.2525   -1.2169 C   0  0  0  0  0  0  0  0  0  0  0  0
   16.4487   -5.0158   -2.3490 O   0  0  0  0  0  0  0  0  0  0  0  0
   16.4242   -4.2617   -3.5238 C   0  0  0  0  0  3  0  0  0  0  0  0
   17.6784   -4.4015   -4.1146 O   0  0  0  0  0  0  0  0  0  0  0  0
   17.8954   -5.7538   -4.3579 C   0  0  2  0  0  0  0  0  0  0  0  0
   18.6475   -6.3216   -3.1715 C   0  0  0  0  0  0  0  0  0  0  0  0
   18.6802   -6.0364   -5.5923 C   0  0  1  0  0  0  0  0  0  0  0  0
   18.3752   -7.3141   -6.1854 N   0  0  0  0  0  0  0  0  0  0  0  0
   19.4963   -8.2241   -6.1583 C   0  0  0  0  0  3  0  0  0  0  0  0
   19.8163   -8.7806   -7.5281 C   0  0  0  0  0  0  0  0  0  0  0  0
   18.5737   -9.2090   -8.2673 C   0  0  2  0  0  0  0  0  0  0  0  0
   17.7221  -10.6132   -7.4530 S   0  0  0  0  0  0  0  0  0  0  0  0
   18.8117  -10.6779   -8.7108 O   0  0  0  0  0  0  0  0  0  0  0  0
   18.8240   -4.9100   -6.5504 C   0  0  2  0  0  0  0  0  0  0  0  0
   18.1021   -3.7814   -6.2672 O   0  0  0  0  0  0  0  0  0  0  0  0
   19.0573   -2.3491   -6.4209 S   0  0  0  0  0  0  0  0  0  0  0  0
   19.9594   -2.1821   -4.9738 O   0  0  0  0  0  0  0  0  0  0  0  0
   20.6817   -3.3390   -4.7512 C   0  0  0  0  0  3  0  0  0  0  0  0
   20.8037   -3.6884   -3.2937 C   0  0  0  0  0  3  0  0  0  0  0  0
   20.4109   -2.6773   -2.4532 O   0  0  0  0  0  0  0  0  0  0  0  0
   19.6954   -3.1853   -1.3593 C   0  0  0  0  0  3  0  0  0  0  0  0
   18.3410   -3.0655   -1.6647 O   0  0  0  0  0  0  0  0  0  0  0  0
   17.6300   -3.7526   -0.6832 C   0  0  0  0  0  3  0  0  0  0  0  0
   18.6147   -5.2933   -7.8709 O   0  0  0  0  0  0  0  0  0  0  0  0
   17.5583   -4.5374   -8.3715 C   0  0  0  0  0  3  0  0  0  0  0  0
   16.3886   -5.2681   -8.2765 O   0  0  0  0  0  0  0  0  0  0  0  0
   15.3131   -4.4043   -8.2361 C   0  0  0  0  0  3  0  0  0  0  0  0
   15.2304   -3.7857   -7.0055 O   0  0  0  0  0  0  0  0  0  0  0  0
   15.1423   -2.4073   -7.1516 C   0  0  0  0  0  3  0  0  0  0  0  0
   15.0564   -1.8528   -5.8596 O   0  0  0  0  0  0  0  0  0  0  0  0
   13.7751   -1.7274   -5.4929 O   0  0  0  0  0  0  0  0  0  0  0  0
   13.4076   -0.6900   -4.6749 C   0  0  0  0  0  0  0  0  0  0  0  0
   14.2173    0.2082   -4.3235 O   0  0  0  0  0  0  0  0  0  0  0  0
  1  2  1  0
  2  3  1  0
  3  4  1  0
  4  5  1  0
  5  6  1  1
  5  7  1  0
  7  8  1  6
  8  9  1  0
  9 10  1  0
 11 10  1  1
 11 12  1  0
 11 13  1  0
  7 14  1  0
 14 15  1  0
 15 16  1  0
 16 17  1  0
 17 18  1  0
 18 19  1  0
 19 20  1  0
 20 21  1  0
 21 22  1  0
 22 23  1  0
 14 24  1  6
 24 25  1  0
 25 26  1  0
 26 27  1  0
 27 28  1  0
 28 29  1  0
 29 30  1  0
 30 31  1  0
 31 32  1  0
 32 33  2  0
 23  1  1  0
 13 12  1  0
M  RAD  8   3   2   9   2  18   2  19   2  21   2  23   2  25   2  27   2
M  RAD  1  29   2
M  END
>  <docking_score>  (1) 
-2.3420000000000001

$$$$

     RDKit          3D

 33 34  0  0  0  0  0  0  0  0999 V2000
   16.3138   -3.1706   -1.8673 C   0  0  0  0  0  0  0  0  0  0  0  0
   16.3571   -3.6012   -3.1718 O   0  0  0  0  0  0  0  0  0  0  0  0
   16.9124   -2.6589   -4.0397 C   0  0  0  0  0  3  0  0  0  0  0  0
   18.0731   -3.2288   -4.5587 O   0  0  0  0  0  0  0  0  0  0  0  0
   17.7245   -4.4075   -5.2098 C   0  0  2  0  0  0  0  0  0  0  0  0
   17.8847   -5.5454   -4.2224 C   0  0  0  0  0  0  0  0  0  0  0  0
   18.5481   -4.7094   -6.4141 C   0  0  1  0  0  0  0  0  0  0  0  0
   17.8490   -5.4865   -7.4064 N   0  0  0  0  0  0  0  0  0  0  0  0
   18.0006   -6.9093   -7.2098 C   0  0  0  0  0  3  0  0  0  0  0  0
   19.3595   -7.4073   -7.6502 C   0  0  0  0  0  0  0  0  0  0  0  0
   19.9082   -8.4529   -6.7124 C   0  0  2  0  0  0  0  0  0  0  0  0
   21.3164   -7.8323   -5.7164 S   0  0  0  0  0  0  0  0  0  0  0  0
   21.3813   -8.6953   -7.1392 O   0  0  0  0  0  0  0  0  0  0  0  0
   19.3671   -3.5898   -6.9461 C   0  0  2  0  0  0  0  0  0  0  0  0
   19.1681   -2.3668   -6.3631 O   0  0  0  0  0  0  0  0  0  0  0  0
   20.6609   -1.5830   -5.9828 S   0  0  0  0  0  0  0  0  0  0  0  0
   21.2178   -2.2413   -4.5021 O   0  0  0  0  0  0  0  0  0  0  0  0
   21.2981   -3.6162   -4.6166 C   0  0  0  0  0  3  0  0  0  0  0  0
   20.9452   -4.3367   -3.3447 C   0  0  0  0  0  3  0  0  0  0  0  0
   20.8653   -3.5112   -2.2515 O   0  0  0  0  0  0  0  0  0  0  0  0
   19.7872   -3.8713   -1.4301 C   0  0  0  0  0  3  0  0  0  0  0  0
   18.7190   -3.0437   -1.7704 O   0  0  0  0  0  0  0  0  0  0  0  0
   17.5903   -3.5278   -1.1127 C   0  0  0  0  0  3  0  0  0  0  0  0
   19.2953   -3.4775   -8.3306 O   0  0  0  0  0  0  0  0  0  0  0  0
   18.5760   -2.3233   -8.6275 C   0  0  0  0  0  3  0  0  0  0  0  0
   17.4097   -2.3084   -7.8854 O   0  0  0  0  0  0  0  0  0  0  0  0
   16.3259   -2.3604   -8.7380 C   0  0  0  0  0  3  0  0  0  0  0  0
   15.1625   -2.0416   -8.0680 O   0  0  0  0  0  0  0  0  0  0  0  0
   15.3653   -2.0551   -6.6941 C   0  0  0  0  0  3  0  0  0  0  0  0
   14.1234   -2.3297   -6.0890 O   0  0  0  0  0  0  0  0  0  0  0  0
   14.0184   -1.6732   -4.9270 O   0  0  0  0  0  0  0  0  0  0  0  0
   13.6792   -0.3445   -4.9330 C   0  0  0  0  0  0  0  0  0  0  0  0
   14.3341    0.5135   -5.5820 O   0  0  0  0  0  0  0  0  0  0  0  0
  1  2  1  0
  2  3  1  0
  3  4  1  0
  4  5  1  0
  5  6  1  1
  5  7  1  0
  7  8  1  6
  8  9  1  0
  9 10  1  0
 11 10  1  6
 11 12  1  0
 11 13  1  0
  7 14  1  0
 14 15  1  0
 15 16  1  0
 16 17  1  0
 17 18  1  0
 18 19  1  0
 19 20  1  0
 20 21  1  0
 21 22  1  0
 22 23  1  0
 14 24  1  6
 24 25  1  0
 25 26  1  0
 26 27  1  0
 27 28  1  0
 28 29  1  0
 29 30  1  0
 30 31  1  0
 31 32  1  0
 32 33  2  0
 23  1  1  0
 13 12  1  0
M  RAD  8   3   2   9   2  18   2  19   2  21   2  23   2  25   2  27   2
M  RAD  1  29   2
M  END
>  <docking_score>  (2) 
-2.1989999999999998

$$$$

     RDKit          3D

 33 34  0  0  0  0  0  0  0  0999 V2000
   13.3498   -0.5069   -4.8708 C   0  0  0  0  0  0  0  0  0  0  0  0
   13.8592   -1.3727   -5.8088 O   0  0  0  0  0  0  0  0  0  0  0  0
   15.0161   -0.8914   -6.4247 C   0  0  0  0  0  3  0  0  0  0  0  0
   16.0426   -1.7726   -6.0910 O   0  0  0  0  0  0  0  0  0  0  0  0
   15.6905   -3.0403   -6.5426 C   0  0  2  0  0  0  0  0  0  0  0  0
   15.0100   -3.7653   -5.3995 C   0  0  0  0  0  0  0  0  0  0  0  0
   16.8398   -3.8668   -7.0070 C   0  0  1  0  0  0  0  0  0  0  0  0
   16.4809   -4.8327   -8.0148 N   0  0  0  0  0  0  0  0  0  0  0  0
   16.1159   -6.1134   -7.4558 C   0  0  0  0  0  3  0  0  0  0  0  0
   17.1613   -7.1739   -7.7217 C   0  0  0  0  0  0  0  0  0  0  0  0
   18.1558   -7.2810   -6.5932 C   0  0  2  0  0  0  0  0  0  0  0  0
   19.3136   -8.6857   -6.8092 S   0  0  0  0  0  0  0  0  0  0  0  0
   17.9069   -8.6571   -5.9183 O   0  0  0  0  0  0  0  0  0  0  0  0
   18.1140   -3.1418   -7.2479 C   0  0  2  0  0  0  0  0  0  0  0  0
   18.0578   -1.7766   -7.1572 O   0  0  0  0  0  0  0  0  0  0  0  0
   19.3614   -1.1382   -6.2188 S   0  0  0  0  0  0  0  0  0  0  0  0
   18.9291   -1.3043   -4.5691 O   0  0  0  0  0  0  0  0  0  0  0  0
   18.6217   -2.6265   -4.3097 C   0  0  0  0  0  3  0  0  0  0  0  0
   17.5133   -2.7897   -3.3067 C   0  0  0  0  0  3  0  0  0  0  0  0
   17.1947   -1.6287   -2.6484 O   0  0  0  0  0  0  0  0  0  0  0  0
   15.8070   -1.5115   -2.4833 C   0  0  0  0  0  3  0  0  0  0  0  0
   15.3373   -0.7100   -3.5221 O   0  0  0  0  0  0  0  0  0  0  0  0
   13.9454   -0.7580   -3.4891 C   0  0  0  0  0  3  0  0  0  0  0  0
   18.7339   -3.5176   -8.4350 O   0  0  0  0  0  0  0  0  0  0  0  0
   19.5268   -4.6302   -8.1678 C   0  0  0  0  0  3  0  0  0  0  0  0
   20.8335   -4.2234   -7.9720 O   0  0  0  0  0  0  0  0  0  0  0  0
   21.3267   -4.8099   -6.8244 C   0  0  0  0  0  3  0  0  0  0  0  0
   20.6722   -4.3269   -5.7098 O   0  0  0  0  0  0  0  0  0  0  0  0
   20.1600   -5.3695   -4.9485 C   0  0  0  0  0  3  0  0  0  0  0  0
   21.2546   -6.1021   -4.4492 O   0  0  0  0  0  0  0  0  0  0  0  0
   20.8880   -6.8078   -3.3724 O   0  0  0  0  0  0  0  0  0  0  0  0
   20.5305   -8.1235   -3.5197 C   0  0  0  0  0  0  0  0  0  0  0  0
   21.3821   -9.0379   -3.6765 O   0  0  0  0  0  0  0  0  0  0  0  0
  1  2  1  0
  2  3  1  0
  3  4  1  0
  4  5  1  0
  5  6  1  1
  5  7  1  0
  7  8  1  6
  8  9  1  0
  9 10  1  0
 11 10  1  6
 11 12  1  0
 11 13  1  0
  7 14  1  0
 14 15  1  0
 15 16  1  0
 16 17  1  0
 17 18  1  0
 18 19  1  0
 19 20  1  0
 20 21  1  0
 21 22  1  0
 22 23  1  0
 14 24  1  6
 24 25  1  0
 25 26  1  0
 26 27  1  0
 27 28  1  0
 28 29  1  0
 29 30  1  0
 30 31  1  0
 31 32  1  0
 32 33  2  0
 23  1  1  0
 13 12  1  0
M  RAD  8   3   2   9   2  18   2  19   2  21   2  23   2  25   2  27   2
M  RAD  1  29   2
M  END
>  <docking_score>  (3) 
-2.0099999999999998

$$$$
