
     RDKit          3D

 27 31  0  0  0  0  0  0  0  0999 V2000
   19.9371   -1.7430   -4.3735 C   0  0  0  0  0  0  0  0  0  0  0  0
   19.1085   -2.5661   -5.3277 C   0  0  0  0  0  3  0  0  0  0  0  0
   17.9927   -1.6926   -5.8629 C   0  0  0  0  0  0  0  0  0  0  0  0
   17.7364   -2.1316   -7.2801 C   0  0  0  0  0  0  0  0  0  0  0  0
   16.6000   -3.1186   -7.3189 C   0  0  0  0  0  0  0  0  0  0  0  0
   16.7089   -4.1628   -6.2302 C   0  0  2  0  0  0  0  0  0  0  0  0
   17.0848   -5.4744   -6.9110 C   0  0  2  0  0  0  0  0  0  0  0  0
   15.8967   -5.6768   -7.8263 C   0  0  0  0  0  0  0  0  0  0  0  0
   14.7260   -4.9199   -7.1718 C   0  0  0  0  0  3  0  0  0  0  0  0
   15.2571   -4.4959   -5.8395 C   0  0  2  0  0  0  0  0  0  0  0  0
   14.5142   -2.9730   -5.1910 S   0  0  0  0  0  0  0  0  0  0  0  0
   15.5008   -2.5447   -3.7138 C   0  0  0  0  0  0  0  0  0  0  0  0
   16.1930   -3.5138   -3.1306 C   0  0  0  0  0  0  0  0  0  0  0  0
   17.0459   -3.4156   -1.9531 C   0  0  0  0  0  3  0  0  0  0  0  0
   15.1804   -5.5284   -4.7662 C   0  0  0  0  0  0  0  0  0  0  0  0
   15.7448   -6.8185   -5.2709 C   0  0  0  0  0  0  0  0  0  0  0  0
   17.0734   -6.5824   -5.8906 C   0  0  1  0  0  0  0  0  0  0  0  0
   17.4838   -7.7818   -6.4806 O   0  0  0  0  0  0  0  0  0  0  0  0
   17.7720   -8.5038   -5.4053 O   0  0  0  0  0  0  0  0  0  0  0  0
   18.4184   -7.7535   -4.5643 O   0  0  0  0  0  0  0  0  0  0  0  0
   18.1446   -6.4403   -4.8452 C   0  0  2  0  0  0  0  0  0  0  0  0
   17.6988   -5.6532   -3.7928 O   0  0  0  0  0  0  0  0  0  0  0  0
   18.5884   -4.9863   -3.0014 C   0  0  0  0  0  0  0  0  0  0  0  0
   18.3860   -4.0054   -2.1764 C   0  0  0  0  0  0  0  0  0  0  0  0
   19.5394   -3.4459   -1.4330 C   0  0  0  0  0  0  0  0  0  0  0  0
   20.1737   -2.2935   -2.1845 C   0  0  0  0  0  0  0  0  0  0  0  0
   19.2981   -1.7678   -3.1379 O   0  0  0  0  0  0  0  0  0  0  0  0
  1  2  1  0
  2  3  1  0
  3  4  1  0
  4  5  1  0
  6  5  1  6
  6  7  1  0
  7  8  1  6
  8  9  1  0
 10  9  1  6
 10 11  1  0
 11 12  1  0
 12 13  2  3
 13 14  1  0
 10 15  1  0
 15 16  1  0
 16 17  1  0
 17 18  1  6
 18 19  1  0
 19 20  1  0
 21 20  1  1
 21 22  1  0
 22 23  1  0
 23 24  2  3
 24 25  1  0
 25 26  1  0
 26 27  1  0
 27  1  1  0
 10  6  1  0
 17  7  1  0
 24 14  1  0
 21 17  1  0
M  RAD  3   2   2   9   2  14   2
M  END
>  <docking_score>  (1) 
-7.4500000000000002

$$$$

     RDKit          3D

 27 31  0  0  0  0  0  0  0  0999 V2000
   16.6436   -4.4285   -8.4593 C   0  0  0  0  0  0  0  0  0  0  0  0
   17.4346   -4.0163   -7.2431 C   0  0  0  0  0  3  0  0  0  0  0  0
   18.5597   -5.0116   -7.0485 C   0  0  0  0  0  0  0  0  0  0  0  0
   19.7264   -4.2463   -6.4831 C   0  0  0  0  0  0  0  0  0  0  0  0
   19.7433   -4.3624   -4.9820 C   0  0  0  0  0  0  0  0  0  0  0  0
   18.3709   -4.1714   -4.3758 C   0  0  2  0  0  0  0  0  0  0  0  0
   18.3809   -2.8167   -3.6758 C   0  0  2  0  0  0  0  0  0  0  0  0
   19.4714   -3.0295   -2.6482 C   0  0  0  0  0  0  0  0  0  0  0  0
   19.5218   -4.5477   -2.3946 C   0  0  0  0  0  3  0  0  0  0  0  0
   18.3418   -5.0874   -3.1383 C   0  0  2  0  0  0  0  0  0  0  0  0
   18.5474   -6.7908   -3.7281 S   0  0  0  0  0  0  0  0  0  0  0  0
   17.1043   -7.1079   -4.8031 C   0  0  0  0  0  0  0  0  0  0  0  0
   16.0295   -6.3498   -4.6344 C   0  0  0  0  0  0  0  0  0  0  0  0
   14.7706   -6.4127   -5.3658 C   0  0  0  0  0  3  0  0  0  0  0  0
   17.0430   -5.0156   -2.4091 C   0  0  0  0  0  0  0  0  0  0  0  0
   16.8488   -3.6353   -1.8661 C   0  0  0  0  0  0  0  0  0  0  0  0
   17.0816   -2.6326   -2.9362 C   0  0  1  0  0  0  0  0  0  0  0  0
   17.0420   -1.3662   -2.3447 O   0  0  0  0  0  0  0  0  0  0  0  0
   15.7447   -1.2484   -2.0923 O   0  0  0  0  0  0  0  0  0  0  0  0
   15.0818   -1.6807   -3.1227 O   0  0  0  0  0  0  0  0  0  0  0  0
   15.8896   -2.5195   -3.8455 C   0  0  2  0  0  0  0  0  0  0  0  0
   15.3821   -3.7762   -4.1442 O   0  0  0  0  0  0  0  0  0  0  0  0
   14.6596   -3.9783   -5.2841 C   0  0  0  0  0  0  0  0  0  0  0  0
   14.3500   -5.0888   -5.8797 C   0  0  0  0  0  0  0  0  0  0  0  0
   13.5514   -5.0338   -7.1267 C   0  0  0  0  0  0  0  0  0  0  0  0
   14.4425   -4.9701   -8.3503 C   0  0  0  0  0  0  0  0  0  0  0  0
   15.7375   -5.4043   -8.0565 O   0  0  0  0  0  0  0  0  0  0  0  0
  1  2  1  0
  2  3  1  0
  3  4  1  0
  4  5  1  0
  6  5  1  1
  6  7  1  0
  7  8  1  1
  8  9  1  0
 10  9  1  1
 10 11  1  0
 11 12  1  0
 12 13  2  3
 13 14  1  0
 10 15  1  0
 15 16  1  0
 16 17  1  0
 17 18  1  1
 18 19  1  0
 19 20  1  0
 21 20  1  1
 21 22  1  0
 22 23  1  0
 23 24  2  3
 24 25  1  0
 25 26  1  0
 26 27  1  0
 27  1  1  0
 10  6  1  0
 17  7  1  0
 24 14  1  0
 21 17  1  0
M  RAD  3   2   2   9   2  14   2
M  END
>  <docking_score>  (2) 
-7.3840000000000003

$$$$

     RDKit          3D

 27 31  0  0  0  0  0  0  0  0999 V2000
   15.1026   -1.7207   -3.8683 C   0  0  0  0  0  0  0  0  0  0  0  0
   15.9823   -2.8966   -3.5248 C   0  0  0  0  0  3  0  0  0  0  0  0
   17.1595   -2.3893   -2.7178 C   0  0  0  0  0  0  0  0  0  0  0  0
   17.5156   -3.4740   -1.7363 C   0  0  0  0  0  0  0  0  0  0  0  0
   18.6252   -4.3286   -2.2891 C   0  0  0  0  0  0  0  0  0  0  0  0
   18.4030   -4.6897   -3.7409 C   0  0  2  0  0  0  0  0  0  0  0  0
   18.0478   -6.1722   -3.7788 C   0  0  2  0  0  0  0  0  0  0  0  0
   19.2990   -6.7852   -3.1880 C   0  0  0  0  0  0  0  0  0  0  0  0
   20.4336   -5.7827   -3.4695 C   0  0  0  0  0  3  0  0  0  0  0  0
   19.8101   -4.7581   -4.3629 C   0  0  2  0  0  0  0  0  0  0  0  0
   20.5390   -3.1027   -4.2215 S   0  0  0  0  0  0  0  0  0  0  0  0
   19.4501   -2.0096   -5.2004 C   0  0  0  0  0  0  0  0  0  0  0  0
   18.6886   -2.5684   -6.1311 C   0  0  0  0  0  0  0  0  0  0  0  0
   17.7480   -1.9087   -7.0276 C   0  0  0  0  0  3  0  0  0  0  0  0
   19.7743   -5.1136   -5.8107 C   0  0  0  0  0  0  0  0  0  0  0  0
   19.2179   -6.4925   -5.9744 C   0  0  0  0  0  0  0  0  0  0  0  0
   17.9492   -6.6206   -5.2135 C   0  0  1  0  0  0  0  0  0  0  0  0
   17.5555   -7.9611   -5.2708 O   0  0  0  0  0  0  0  0  0  0  0  0
   17.1641   -8.0530   -6.5353 O   0  0  0  0  0  0  0  0  0  0  0  0
   16.4731   -6.9937   -6.8326 O   0  0  0  0  0  0  0  0  0  0  0  0
   16.8027   -5.9927   -5.9562 C   0  0  2  0  0  0  0  0  0  0  0  0
   17.1843   -4.7772   -6.5066 O   0  0  0  0  0  0  0  0  0  0  0  0
   16.2527   -3.8191   -6.7829 C   0  0  0  0  0  0  0  0  0  0  0  0
   16.4147   -2.5538   -7.0204 C   0  0  0  0  0  0  0  0  0  0  0  0
   15.2212   -1.7170   -7.2874 C   0  0  0  0  0  0  0  0  0  0  0  0
   14.6790   -1.1061   -6.0115 C   0  0  0  0  0  0  0  0  0  0  0  0
   15.6408   -1.1132   -4.9982 O   0  0  0  0  0  0  0  0  0  0  0  0
  1  2  1  0
  2  3  1  0
  3  4  1  0
  4  5  1  0
  6  5  1  1
  6  7  1  0
  7  8  1  1
  8  9  1  0
 10  9  1  1
 10 11  1  0
 11 12  1  0
 12 13  2  3
 13 14  1  0
 10 15  1  0
 15 16  1  0
 16 17  1  0
 17 18  1  1
 18 19  1  0
 19 20  1  0
 21 20  1  6
 21 22  1  0
 22 23  1  0
 23 24  2  3
 24 25  1  0
 25 26  1  0
 26 27  1  0
 27  1  1  0
 10  6  1  0
 17  7  1  0
 24 14  1  0
 21 17  1  0
M  RAD  3   2   2   9   2  14   2
M  END
>  <docking_score>  (3) 
-6.5949999999999998

$$$$
