
     RDKit          3D

 10  9  0  0  0  0  0  0  0  0999 V2000
   13.8753   -0.0355   -5.4192 C   0  0  0  0  0  0  0  0  0  0  0  0
   14.2304   -1.3348   -4.8346 C   0  0  0  0  0  0  0  0  0  0  0  0
   15.4715   -1.7662   -4.7283 C   0  0  0  0  0  0  0  0  0  0  0  0
   15.7222   -3.0669   -4.1339 C   0  0  0  0  0  0  0  0  0  0  0  0
   16.2849   -3.2424   -2.9696 C   0  0  0  0  0  0  0  0  0  0  0  0
   16.4912   -4.5417   -2.4686 N   0  0  0  0  0  0  0  0  0  0  0  0
   16.8896   -5.5881   -3.3673 C   0  0  0  0  0  0  0  0  0  0  0  0
   18.3333   -5.9384   -3.0688 C   0  0  0  0  0  0  0  0  0  0  0  0
   16.7154   -2.0909   -2.1575 C   0  0  0  0  0  0  0  0  0  0  0  0
   18.4223   -1.7735   -2.5690 Cl  0  0  0  0  0  0  0  0  0  0  0  0
  1  2  1  0
  2  3  2  3
  3  4  1  0
  4  5  2  3
  5  6  1  0
  6  7  1  0
  7  8  1  0
  5  9  1  0
  9 10  1  0
M  END
>  <docking_score>  (1) 
-3.3959999999999999

$$$$

     RDKit          3D

 10  9  0  0  0  0  0  0  0  0999 V2000
   13.6191    0.3920   -4.5973 C   0  0  0  0  0  0  0  0  0  0  0  0
   14.0670   -0.9243   -5.0693 C   0  0  0  0  0  0  0  0  0  0  0  0
   14.7448   -1.7704   -4.3195 C   0  0  0  0  0  0  0  0  0  0  0  0
   15.1430   -3.0507   -4.8766 C   0  0  0  0  0  0  0  0  0  0  0  0
   16.0034   -3.8560   -4.3160 C   0  0  0  0  0  0  0  0  0  0  0  0
   16.3332   -5.0805   -4.9272 N   0  0  0  0  0  0  0  0  0  0  0  0
   15.3033   -5.8471   -5.5696 C   0  0  0  0  0  0  0  0  0  0  0  0
   14.7720   -6.8518   -4.5674 C   0  0  0  0  0  0  0  0  0  0  0  0
   16.6463   -3.5036   -3.0380 C   0  0  0  0  0  0  0  0  0  0  0  0
   16.3768   -4.8722   -1.9254 Cl  0  0  0  0  0  0  0  0  0  0  0  0
  1  2  1  0
  2  3  2  3
  3  4  1  0
  4  5  2  3
  5  6  1  0
  6  7  1  0
  7  8  1  0
  5  9  1  0
  9 10  1  0
M  END
>  <docking_score>  (2) 
-3.254

$$$$

     RDKit          3D

 10  9  0  0  0  0  0  0  0  0999 V2000
   19.7605   -1.8411   -1.5948 C   0  0  0  0  0  0  0  0  0  0  0  0
   18.4853   -1.5434   -2.2592 C   0  0  0  0  0  0  0  0  0  0  0  0
   17.4388   -2.3435   -2.2095 C   0  0  0  0  0  0  0  0  0  0  0  0
   16.2198   -1.9610   -2.8993 C   0  0  0  0  0  0  0  0  0  0  0  0
   15.8031   -2.5113   -4.0068 C   0  0  0  0  0  0  0  0  0  0  0  0
   14.6075   -2.0773   -4.6100 N   0  0  0  0  0  0  0  0  0  0  0  0
   14.6662   -1.3447   -5.8433 C   0  0  0  0  0  0  0  0  0  0  0  0
   14.5289    0.1294   -5.5203 C   0  0  0  0  0  0  0  0  0  0  0  0
   16.5709   -3.5930   -4.6482 C   0  0  0  0  0  0  0  0  0  0  0  0
   15.4140   -4.8972   -5.0282 Cl  0  0  0  0  0  0  0  0  0  0  0  0
  1  2  1  0
  2  3  2  3
  3  4  1  0
  4  5  2  3
  5  6  1  0
  6  7  1  0
  7  8  1  0
  5  9  1  0
  9 10  1  0
M  END
>  <docking_score>  (3) 
-3.1589999999999998

$$$$
