
     RDKit          3D

 31 31  0  0  0  0  0  0  0  0999 V2000
    4.4889    9.9978    3.3368 C   0  0  0  0  0  0  0  0  0  0  0  0
    5.3757   11.0028    2.6990 C   0  0  1  0  0  0  0  0  0  0  0  0
    4.6578   11.7397    1.5989 C   0  0  0  0  0  0  0  0  0  0  0  0
    5.8883   11.9211    3.7650 C   0  0  0  0  0  0  0  0  0  0  0  0
    5.2543   13.2785    3.5520 C   0  0  0  0  0  0  0  0  0  0  0  0
    6.2997   14.3200    3.8506 C   0  0  0  0  0  0  0  0  0  0  0  0
    6.3736   14.4821    5.3460 C   0  0  1  0  0  0  0  0  0  0  0  0
    7.7841   14.3601    5.8698 C   0  0  0  0  0  0  0  0  0  0  0  0
    5.7445   15.7985    5.7270 C   0  0  0  0  0  3  0  0  0  0  0  0
    5.9382   16.0712    7.1936 C   0  0  0  0  0  3  0  0  0  0  0  0
    6.2876   14.7662    7.8736 C   0  0  0  0  0  0  0  0  0  0  0  0
    5.6353   14.7270    9.2439 C   0  0  2  0  0  0  0  0  0  0  0  0
    6.4652   15.5177   10.2380 C   0  0  0  0  0  0  0  0  0  0  0  0
    5.5603   13.2846    9.6641 C   0  0  0  0  0  3  0  0  0  0  0  0
    5.7501   13.1072   11.1553 C   0  0  0  0  0  0  0  0  0  0  0  0
    5.2115   11.7258   11.5009 C   0  0  1  0  0  0  0  0  0  0  0  0
    4.9526   11.5730   12.9750 C   0  0  0  0  0  0  0  0  0  0  0  0
    3.8992   11.5834   10.7406 C   0  0  0  0  0  0  0  0  0  0  0  0
    4.0691   10.4132    9.7962 C   0  0  0  0  0  0  0  0  0  0  0  0
    3.1501    9.3115   10.2956 C   0  0  2  0  0  0  0  0  0  0  0  0
    2.8964    9.4011   11.7743 C   0  0  0  0  0  0  0  0  0  0  0  0
    3.7376    7.9684    9.9540 C   0  0  0  0  0  3  0  0  0  0  0  0
    3.7676    7.8720    8.4332 C   0  0  0  0  0  0  0  0  0  0  0  0
    2.8995    6.6897    8.0335 C   0  0  0  0  0  0  0  0  0  0  0  0
    3.3750    6.1873    6.6855 C   0  0  1  0  0  0  0  0  0  0  0  0
    3.0245    4.7090    6.6177 C   0  0  0  0  0  2  0  0  0  0  0  0
    2.6047    6.8812    5.5937 C   0  0  0  0  0  3  0  0  0  0  0  0
    3.3931    8.0149    5.0092 C   0  0  0  0  0  0  0  0  0  0  0  0
    3.8845    7.6301    3.6407 C   0  0  1  0  0  0  0  0  0  0  0  0
    2.7548    7.2670    2.7016 C   0  0  0  0  0  0  0  0  0  0  0  0
    4.7051    8.7198    3.0630 C   0  0  0  0  0  0  0  0  0  0  0  0
  1  2  1  0
  2  3  1  6
  2  4  1  0
  4  5  1  0
  5  6  1  0
  6  7  1  0
  7  8  1  6
  7  9  1  0
  9 10  1  0
 10 11  1  0
 11 12  1  0
 12 13  1  1
 12 14  1  0
 14 15  1  0
 15 16  1  0
 16 17  1  1
 16 18  1  0
 18 19  1  0
 19 20  1  0
 20 21  1  1
 20 22  1  0
 22 23  1  0
 23 24  1  0
 24 25  1  0
 25 26  1  1
 25 27  1  0
 27 28  1  0
 28 29  1  0
 29 30  1  6
 29 31  1  0
  1 31  2  3
M  RAD  6   9   2  10   2  14   2  22   2  26   3  27   2
M  END
>  <docking_score>  (1) 
-5.3120000000000003

$$$$
