
     RDKit          3D

 26 26  0  0  0  0  0  0  0  0999 V2000
   17.2181   -9.4065   -5.7236 C   0  0  0  0  0  0  0  0  0  0  0  0
   18.2858   -8.3875   -5.4549 C   0  0  0  0  0  3  0  0  0  0  0  0
   17.7593   -6.9750   -5.5661 C   0  0  1  0  0  0  0  0  0  0  0  0
   16.5318   -6.7573   -4.6989 C   0  0  2  0  0  0  0  0  0  0  0  0
   15.4981   -6.3902   -5.5553 O   0  0  0  0  0  0  0  0  0  0  0  0
   16.7395   -5.6309   -3.7092 C   0  0  0  0  0  0  0  0  0  0  0  0
   17.6133   -5.9952   -2.7043 O   0  0  0  0  0  0  0  0  0  0  0  0
   18.8276   -5.5218   -2.8683 O   0  0  0  0  0  0  0  0  0  0  0  0
   19.4246   -6.3432   -3.8533 C   0  0  1  0  0  0  0  0  0  0  0  0
   19.1289   -7.6482   -3.4832 O   0  0  0  0  0  0  0  0  0  0  0  0
   18.7754   -5.9631   -5.1611 C   0  0  1  0  0  0  0  0  0  0  0  0
   19.7544   -5.6387   -6.1465 N   0  0  0  0  0  0  0  0  0  0  0  0
   20.5611   -4.4890   -5.8157 C   0  0  0  0  0  3  0  0  0  0  0  0
   19.8916   -3.2855   -6.4589 C   0  0  2  0  0  0  0  0  0  0  0  0
   20.9109   -2.2920   -6.9755 C   0  0  0  0  0  0  0  0  0  0  0  0
   19.1160   -2.6690   -5.4850 O   0  0  0  0  0  0  0  0  0  0  0  0
   19.8249   -2.4934   -4.3071 C   0  0  0  0  0  0  0  0  0  0  0  0
   19.5428   -1.0949   -3.8044 C   0  0  1  0  0  0  0  0  0  0  0  0
   18.6883   -0.4879   -4.7222 O   0  0  0  0  0  0  0  0  0  0  0  0
   18.9037   -1.2226   -2.4402 C   0  0  2  0  0  0  0  0  0  0  0  0
   19.8079   -1.2438   -1.4022 O   0  0  0  0  0  0  0  0  0  0  0  0
   17.8743   -2.2967   -2.3443 C   0  0  0  0  0  3  0  0  0  0  0  0
   16.5023   -1.7097   -2.2936 C   0  0  0  0  0  0  0  0  0  0  0  0
   15.6962   -2.2285   -3.4657 C   0  0  0  0  0  3  0  0  0  0  0  0
   15.2826   -1.1973   -4.3050 O   0  0  0  0  0  0  0  0  0  0  0  0
   14.0660   -1.3812   -4.7769 O   0  0  0  0  0  0  0  0  0  0  0  0
  1  2  1  0
  3  2  1  1
  3  4  1  0
  4  5  1  6
  4  6  1  0
  6  7  1  0
  7  8  1  0
  8  9  1  0
  9 10  1  1
  9 11  1  0
 11 12  1  6
 12 13  1  0
 13 14  1  0
 14 15  1  1
 14 16  1  0
 16 17  1  0
 17 18  1  0
 18 19  1  6
 18 20  1  0
 20 21  1  1
 20 22  1  0
 22 23  1  0
 23 24  1  0
 24 25  1  0
 25 26  1  0
 11  3  1  0
M  RAD  4   2   2  13   2  22   2  24   2
M  END
>  <docking_score>  (1) 
-3.6869999999999998

$$$$

     RDKit          3D

 26 26  0  0  0  0  0  0  0  0999 V2000
   18.2915   -1.5877   -6.7997 C   0  0  0  0  0  0  0  0  0  0  0  0
   18.1658   -2.2037   -5.4377 C   0  0  0  0  0  3  0  0  0  0  0  0
   19.5124   -2.3986   -4.7795 C   0  0  1  0  0  0  0  0  0  0  0  0
   20.1674   -1.0752   -4.4251 C   0  0  2  0  0  0  0  0  0  0  0  0
   21.3731   -1.0282   -5.1185 O   0  0  0  0  0  0  0  0  0  0  0  0
   20.4764   -0.9830   -2.9460 C   0  0  0  0  0  0  0  0  0  0  0  0
   19.3266   -0.8262   -2.1979 O   0  0  0  0  0  0  0  0  0  0  0  0
   18.9203   -1.9350   -1.6226 O   0  0  0  0  0  0  0  0  0  0  0  0
   18.2983   -2.6872   -2.6466 C   0  0  1  0  0  0  0  0  0  0  0  0
   17.4713   -1.7962   -3.3172 O   0  0  0  0  0  0  0  0  0  0  0  0
   19.4144   -3.1966   -3.5249 C   0  0  1  0  0  0  0  0  0  0  0  0
   19.3314   -4.6106   -3.6942 N   0  0  0  0  0  0  0  0  0  0  0  0
   17.9820   -5.1215   -3.7083 C   0  0  0  0  0  3  0  0  0  0  0  0
   18.0883   -6.6333   -3.8245 C   0  0  2  0  0  0  0  0  0  0  0  0
   19.3298   -7.0467   -4.5863 C   0  0  0  0  0  0  0  0  0  0  0  0
   16.9678   -7.0789   -4.5147 O   0  0  0  0  0  0  0  0  0  0  0  0
   16.4849   -6.1092   -5.3792 C   0  0  0  0  0  0  0  0  0  0  0  0
   15.0802   -6.5053   -5.7764 C   0  0  1  0  0  0  0  0  0  0  0  0
   14.4399   -6.9709   -4.6301 O   0  0  0  0  0  0  0  0  0  0  0  0
   14.4032   -5.2758   -6.3385 C   0  0  2  0  0  0  0  0  0  0  0  0
   13.4926   -4.7011   -5.4805 O   0  0  0  0  0  0  0  0  0  0  0  0
   13.8791   -5.4447   -7.7239 C   0  0  0  0  0  3  0  0  0  0  0  0
   14.8559   -4.9218   -8.7250 C   0  0  0  0  0  0  0  0  0  0  0  0
   15.6056   -3.7519   -8.1234 C   0  0  0  0  0  3  0  0  0  0  0  0
   14.9493   -2.5453   -8.3519 O   0  0  0  0  0  0  0  0  0  0  0  0
   15.0838   -1.6951   -7.3541 O   0  0  0  0  0  0  0  0  0  0  0  0
  1  2  1  0
  3  2  1  1
  3  4  1  0
  4  5  1  6
  4  6  1  0
  6  7  1  0
  7  8  1  0
  8  9  1  0
  9 10  1  6
  9 11  1  0
 11 12  1  6
 12 13  1  0
 13 14  1  0
 14 15  1  6
 14 16  1  0
 16 17  1  0
 17 18  1  0
 18 19  1  1
 18 20  1  0
 20 21  1  1
 20 22  1  0
 22 23  1  0
 23 24  1  0
 24 25  1  0
 25 26  1  0
 11  3  1  0
M  RAD  4   2   2  13   2  22   2  24   2
M  END
>  <docking_score>  (2) 
-3.351

$$$$

     RDKit          3D

 26 26  0  0  0  0  0  0  0  0999 V2000
   17.1987   -1.6741   -3.4307 C   0  0  0  0  0  0  0  0  0  0  0  0
   18.0426   -2.1351   -2.2793 C   0  0  0  0  0  3  0  0  0  0  0  0
   19.5039   -1.8067   -2.4830 C   0  0  1  0  0  0  0  0  0  0  0  0
   20.1997   -1.4804   -1.1733 C   0  0  2  0  0  0  0  0  0  0  0  0
   20.6838   -0.1810   -1.2914 O   0  0  0  0  0  0  0  0  0  0  0  0
   21.3790   -2.3962   -0.9237 C   0  0  0  0  0  0  0  0  0  0  0  0
   20.9677   -3.6740   -0.6009 O   0  0  0  0  0  0  0  0  0  0  0  0
   21.0509   -4.5201   -1.6023 O   0  0  0  0  0  0  0  0  0  0  0  0
   19.9383   -4.2388   -2.4295 C   0  0  1  0  0  0  0  0  0  0  0  0
   18.8509   -4.1333   -1.5728 O   0  0  0  0  0  0  0  0  0  0  0  0
   20.2498   -2.9313   -3.1150 C   0  0  1  0  0  0  0  0  0  0  0  0
   20.1145   -3.0473   -4.5303 N   0  0  0  0  0  0  0  0  0  0  0  0
   21.1986   -2.4525   -5.2739 C   0  0  0  0  0  3  0  0  0  0  0  0
   20.5833   -1.8142   -6.5085 C   0  0  2  0  0  0  0  0  0  0  0  0
   20.0299   -0.4377   -6.2057 C   0  0  0  0  0  0  0  0  0  0  0  0
   19.5437   -2.6345   -6.9287 O   0  0  0  0  0  0  0  0  0  0  0  0
   18.3684   -1.9194   -7.0964 C   0  0  0  0  0  0  0  0  0  0  0  0
   17.4931   -2.6917   -8.0583 C   0  0  1  0  0  0  0  0  0  0  0  0
   18.1705   -3.8638   -8.3870 O   0  0  0  0  0  0  0  0  0  0  0  0
   16.1856   -2.9764   -7.3546 C   0  0  2  0  0  0  0  0  0  0  0  0
   15.6138   -4.1779   -7.7084 O   0  0  0  0  0  0  0  0  0  0  0  0
   15.2212   -1.8397   -7.3708 C   0  0  0  0  0  3  0  0  0  0  0  0
   15.2586   -1.0975   -6.0756 C   0  0  0  0  0  0  0  0  0  0  0  0
   13.9743   -0.3115   -5.9162 C   0  0  0  0  0  3  0  0  0  0  0  0
   13.4273   -0.4679   -4.6453 O   0  0  0  0  0  0  0  0  0  0  0  0
   13.6440    0.5722   -3.8656 O   0  0  0  0  0  0  0  0  0  0  0  0
  1  2  1  0
  3  2  1  1
  3  4  1  0
  4  5  1  6
  4  6  1  0
  6  7  1  0
  7  8  1  0
  8  9  1  0
  9 10  1  1
  9 11  1  0
 11 12  1  6
 12 13  1  0
 13 14  1  0
 14 15  1  1
 14 16  1  0
 16 17  1  0
 17 18  1  0
 18 19  1  1
 18 20  1  0
 20 21  1  6
 20 22  1  0
 22 23  1  0
 23 24  1  0
 24 25  1  0
 25 26  1  0
 11  3  1  0
M  RAD  4   2   2  13   2  22   2  24   2
M  END
>  <docking_score>  (3) 
-3.1459999999999999

$$$$
