
     RDKit          3D

 25 27  0  0  0  0  0  0  0  0999 V2000
   18.3219   -3.6120   -1.4638 O   0  0  0  0  0  0  0  0  0  0  0  0
   17.4254   -4.0077   -2.3129 C   0  0  0  0  0  0  0  0  0  0  0  0
   16.3112   -3.3029   -2.7080 N   0  0  0  0  0  0  0  0  0  0  0  0
   16.0162   -2.5956   -3.9075 C   0  0  0  0  0  0  0  0  0  0  0  0
   15.0492   -1.5645   -3.8519 C   0  0  0  0  0  0  0  0  0  0  0  0
   14.6739   -0.8105   -4.9248 C   0  0  0  0  0  0  0  0  0  0  0  0
   13.4585    0.4523   -4.7516 Cl  0  0  0  0  0  0  0  0  0  0  0  0
   15.2700   -1.0650   -6.1385 C   0  0  0  0  0  0  0  0  0  0  0  0
   16.2134   -2.0649   -6.2132 C   0  0  0  0  0  0  0  0  0  0  0  0
   16.9338   -2.3393   -7.7928 Cl  0  0  0  0  0  0  0  0  0  0  0  0
   16.6088   -2.8451   -5.1272 C   0  0  0  0  0  0  0  0  0  0  0  0
   17.7050   -5.3027   -2.8286 N   0  0  0  0  0  0  0  0  0  0  0  0
   16.8996   -6.0797   -3.7052 C   0  0  0  0  0  0  0  0  0  0  0  0
   17.7754   -6.5755   -4.8354 C   0  0  0  0  0  0  0  0  0  0  0  0
   19.2147   -6.4070   -4.4442 C   0  0  0  0  0  0  0  0  0  0  0  0
   19.8356   -4.9126   -4.2461 S   0  0  1  0  0  0  0  0  0  0  0  0
   18.9343   -3.7005   -4.7457 C   0  0  2  0  0  0  0  0  0  0  0  0
   17.6296   -3.8865   -5.3959 C   0  0  2  0  0  0  0  0  0  0  0  0
   17.5942   -4.2641   -6.8230 C   0  0  0  0  0  0  0  0  0  0  0  0
   18.8304   -4.7723   -7.3812 N   0  0  0  0  0  0  0  0  0  0  0  0
   19.9615   -4.0633   -7.9402 C   0  0  0  0  0  0  0  0  0  0  0  0
   20.5750   -3.0103   -7.4654 N   0  0  0  0  0  0  0  0  0  0  0  0
   20.3669   -2.2094   -6.2782 C   0  0  0  0  0  0  0  0  0  0  0  0
   19.6947   -2.5053   -5.1766 C   0  0  0  0  0  0  0  0  0  0  0  0
   21.1595   -4.6194   -2.9128 Cl  0  0  0  0  0  0  0  0  0  0  0  0
  1  2  2  0
  2  3  1  0
  3  4  1  0
  4  5  2  0
  5  6  1  0
  6  7  1  0
  6  8  2  0
  8  9  1  0
  9 10  1  0
  9 11  2  0
  2 12  1  0
 12 13  1  0
 13 14  1  0
 14 15  1  0
 15 16  1  0
 16 17  1  0
 17 18  1  0
 18 19  1  6
 19 20  1  0
 20 21  1  0
 21 22  2  3
 22 23  1  0
 23 24  2  3
 16 25  1  1
 11  4  1  0
 18 11  1  0
 17 24  1  6
M  END
>  <docking_score>  (1) 
-5.8659999999999997

$$$$

     RDKit          3D

 25 27  0  0  0  0  0  0  0  0999 V2000
   18.9675   -7.1789   -4.2294 O   0  0  0  0  0  0  0  0  0  0  0  0
   18.1591   -6.2828   -3.7554 C   0  0  0  0  0  0  0  0  0  0  0  0
   18.4800   -5.2905   -2.8573 N   0  0  0  0  0  0  0  0  0  0  0  0
   18.6887   -3.8927   -3.0275 C   0  0  0  0  0  0  0  0  0  0  0  0
   19.4866   -3.2177   -2.0742 C   0  0  0  0  0  0  0  0  0  0  0  0
   19.7655   -1.8832   -2.1190 C   0  0  0  0  0  0  0  0  0  0  0  0
   20.7715   -1.1358   -0.8816 Cl  0  0  0  0  0  0  0  0  0  0  0  0
   19.2403   -1.1438   -3.1536 C   0  0  0  0  0  0  0  0  0  0  0  0
   18.4607   -1.7826   -4.0915 C   0  0  0  0  0  0  0  0  0  0  0  0
   17.8196   -0.7796   -5.3848 Cl  0  0  0  0  0  0  0  0  0  0  0  0
   18.1654   -3.1451   -4.0611 C   0  0  0  0  0  0  0  0  0  0  0  0
   16.8405   -6.4202   -4.2687 N   0  0  0  0  0  0  0  0  0  0  0  0
   15.6861   -5.6745   -3.9052 C   0  0  0  0  0  0  0  0  0  0  0  0
   15.0155   -5.1946   -5.1742 C   0  0  0  0  0  0  0  0  0  0  0  0
   15.5621   -5.9720   -6.3361 C   0  0  0  0  0  0  0  0  0  0  0  0
   17.1254   -5.8027   -6.7664 S   0  0  1  0  0  0  0  0  0  0  0  0
   17.9211   -4.6061   -6.0838 C   0  0  2  0  0  0  0  0  0  0  0  0
   17.2979   -3.6597   -5.1480 C   0  0  2  0  0  0  0  0  0  0  0  0
   16.4735   -2.5617   -5.6913 C   0  0  0  0  0  0  0  0  0  0  0  0
   16.0446   -2.7043   -7.0674 N   0  0  0  0  0  0  0  0  0  0  0  0
   16.7245   -2.3557   -8.2965 C   0  0  0  0  0  0  0  0  0  0  0  0
   17.9681   -2.5861   -8.6299 N   0  0  0  0  0  0  0  0  0  0  0  0
   19.0619   -3.2349   -7.9393 C   0  0  0  0  0  0  0  0  0  0  0  0
   19.0263   -4.0565   -6.9017 C   0  0  0  0  0  0  0  0  0  0  0  0
   18.0755   -7.3027   -7.4474 Cl  0  0  0  0  0  0  0  0  0  0  0  0
  1  2  2  0
  2  3  1  0
  3  4  1  0
  4  5  2  0
  5  6  1  0
  6  7  1  0
  6  8  2  0
  8  9  1  0
  9 10  1  0
  9 11  2  0
  2 12  1  0
 12 13  1  0
 13 14  1  0
 14 15  1  0
 15 16  1  0
 16 17  1  0
 17 18  1  0
 18 19  1  6
 19 20  1  0
 20 21  1  0
 21 22  2  3
 22 23  1  0
 23 24  2  3
 16 25  1  1
 11  4  1  0
 18 11  1  0
 17 24  1  6
M  END
>  <docking_score>  (2) 
-5.6130000000000004

$$$$

     RDKit          3D

 25 27  0  0  0  0  0  0  0  0999 V2000
   15.2755   -6.6403   -4.2417 O   0  0  0  0  0  0  0  0  0  0  0  0
   15.2342   -5.8936   -5.3009 C   0  0  0  0  0  0  0  0  0  0  0  0
   14.6135   -4.6701   -5.4106 N   0  0  0  0  0  0  0  0  0  0  0  0
   15.1339   -3.3456   -5.4442 C   0  0  0  0  0  0  0  0  0  0  0  0
   14.2829   -2.2857   -5.0524 C   0  0  0  0  0  0  0  0  0  0  0  0
   14.6544   -0.9733   -5.0378 C   0  0  0  0  0  0  0  0  0  0  0  0
   13.5186    0.2741   -4.5322 Cl  0  0  0  0  0  0  0  0  0  0  0  0
   15.9353   -0.6560   -5.4274 C   0  0  0  0  0  0  0  0  0  0  0  0
   16.7787   -1.6737   -5.8127 C   0  0  0  0  0  0  0  0  0  0  0  0
   18.3993   -1.1992   -6.3005 Cl  0  0  0  0  0  0  0  0  0  0  0  0
   16.4158   -3.0198   -5.8339 C   0  0  0  0  0  0  0  0  0  0  0  0
   15.9206   -6.4780   -6.4002 N   0  0  0  0  0  0  0  0  0  0  0  0
   16.0040   -5.9862   -7.7313 C   0  0  0  0  0  0  0  0  0  0  0  0
   17.4579   -6.0044   -8.1508 C   0  0  0  0  0  0  0  0  0  0  0  0
   18.2284   -6.8677   -7.1948 C   0  0  0  0  0  0  0  0  0  0  0  0
   18.3936   -6.4129   -5.6380 S   0  0  1  0  0  0  0  0  0  0  0  0
   17.9464   -4.9277   -5.2840 C   0  0  2  0  0  0  0  0  0  0  0  0
   17.4509   -3.9783   -6.2904 C   0  0  2  0  0  0  0  0  0  0  0  0
   18.4271   -3.2851   -7.1547 C   0  0  0  0  0  0  0  0  0  0  0  0
   19.7596   -3.8510   -7.1967 N   0  0  0  0  0  0  0  0  0  0  0  0
   20.8900   -3.6399   -6.3179 C   0  0  0  0  0  0  0  0  0  0  0  0
   20.9089   -3.6185   -5.0102 N   0  0  0  0  0  0  0  0  0  0  0  0
   19.8728   -3.7873   -4.0141 C   0  0  0  0  0  0  0  0  0  0  0  0
   18.6691   -4.3235   -4.1416 C   0  0  0  0  0  0  0  0  0  0  0  0
   18.4312   -7.7389   -4.2753 Cl  0  0  0  0  0  0  0  0  0  0  0  0
  1  2  2  0
  2  3  1  0
  3  4  1  0
  4  5  2  0
  5  6  1  0
  6  7  1  0
  6  8  2  0
  8  9  1  0
  9 10  1  0
  9 11  2  0
  2 12  1  0
 12 13  1  0
 13 14  1  0
 14 15  1  0
 15 16  1  0
 16 17  1  0
 17 18  1  0
 18 19  1  1
 19 20  1  0
 20 21  1  0
 21 22  2  3
 22 23  1  0
 23 24  2  3
 16 25  1  1
 11  4  1  0
 18 11  1  0
 17 24  1  6
M  END
>  <docking_score>  (3) 
-5.3780000000000001

$$$$
