
     RDKit          3D

 29 29  0  0  0  0  0  0  0  0999 V2000
   16.8966   -2.6541   -5.3940 C   0  0  0  0  0  0  0  0  0  0  0  0
   17.6828   -1.5100   -5.6644 C   0  0  2  0  0  0  0  0  0  0  0  0
   18.8199   -1.8660   -6.6918 C   0  0  0  0  0  0  0  0  0  0  0  0
   18.6183   -1.0298   -4.4295 C   0  0  0  0  0  0  0  0  0  0  0  0
   19.7410   -1.9846   -4.2687 C   0  0  0  0  0  0  0  0  0  0  0  0
   20.9361   -1.2536   -3.5589 C   0  0  0  0  0  0  0  0  0  0  0  0
   20.9624   -1.8156   -2.1630 C   0  0  1  0  0  0  0  0  0  0  0  0
   20.5537   -0.6951   -1.1649 C   0  0  0  0  0  0  0  0  0  0  0  0
   20.0188   -2.9420   -1.8914 C   0  0  0  0  0  3  0  0  0  0  0  0
   20.7117   -4.2816   -2.2082 C   0  0  0  0  0  0  0  0  0  0  0  0
   20.8321   -4.4024   -3.7445 C   0  0  0  0  0  0  0  0  0  0  0  0
   20.4371   -5.8535   -4.0842 C   0  0  1  0  0  0  0  0  0  0  0  0
   21.0854   -6.8888   -3.2462 C   0  0  0  0  0  0  0  0  0  0  0  0
   18.8547   -5.9865   -3.7334 C   0  0  0  0  0  0  0  0  0  0  0  0
   18.0650   -5.7725   -5.0218 C   0  0  0  0  0  0  0  0  0  0  0  0
   18.4479   -6.9566   -5.8966 C   0  0  0  0  0  0  0  0  0  0  0  0
   18.3779   -8.3207   -5.1914 C   0  0  0  0  0  3  0  0  0  0  0  0
   16.8658   -8.8017   -5.3177 C   0  0  0  0  0  0  0  0  0  0  0  0
   16.7413  -10.2478   -5.6977 C   0  0  0  0  0  0  0  0  0  0  0  0
   18.8900   -6.9152   -7.1501 C   0  0  0  0  0  0  0  0  0  0  0  0
   19.1685   -8.0128   -7.7902 O   0  0  0  0  0  0  0  0  0  0  0  0
   19.0476   -5.4742   -7.8298 C   0  0  0  0  0  0  0  0  0  0  0  0
   17.8595   -4.9448   -7.5726 C   0  0  0  0  0  0  0  0  0  0  0  0
   16.5619   -4.3718   -7.2784 C   0  0  0  0  0  0  0  0  0  0  0  0
   15.0694   -3.7365   -6.9238 C   0  0  0  0  0  0  0  0  0  0  0  0
   14.4302   -4.2163   -7.9593 O   0  0  0  0  0  0  0  0  0  0  0  0
   13.6312   -5.4688   -7.3145 C   0  0  0  0  0  0  0  0  0  0  0  0
   15.2149   -2.9347   -5.6618 S   0  0  2  0  0  0  0  0  0  0  0  0
   14.7076   -1.1469   -5.7443 C   0  0  0  0  0  0  0  0  0  0  0  0
  1  2  1  0
  2  3  1  6
  2  4  1  0
  4  5  1  0
  5  6  1  0
  6  7  1  0
  7  8  1  1
  7  9  1  0
  9 10  1  0
 10 11  1  0
 11 12  1  0
 12 13  1  1
 12 14  1  0
 14 15  1  0
 15 16  1  0
 16 17  1  0
 17 18  1  0
 18 19  1  0
 16 20  2  3
 20 21  1  0
 20 22  1  0
 22 23  1  0
 23 24  3  0
 24 25  1  0
 25 26  1  0
 26 27  1  0
 25 28  2  0
 28 29  1  6
  1 28  2  0
M  RAD  2   9   2  17   2
M  END
>  <docking_score>  (1) 
-5.4539999999999997

$$$$

     RDKit          3D

 29 29  0  0  0  0  0  0  0  0999 V2000
    5.4408   12.1604    3.1862 C   0  0  0  0  0  0  0  0  0  0  0  0
    4.5194   11.7609    2.1904 C   0  0  2  0  0  0  0  0  0  0  0  0
    3.0821   12.2988    2.5369 C   0  0  0  0  0  0  0  0  0  0  0  0
    4.1849   10.1738    2.1818 C   0  0  0  0  0  0  0  0  0  0  0  0
    3.3355    9.8484    3.3525 C   0  0  0  0  0  0  0  0  0  0  0  0
    2.5161    8.5449    3.0430 C   0  0  0  0  0  0  0  0  0  0  0  0
    3.1559    7.4738    3.8847 C   0  0  1  0  0  0  0  0  0  0  0  0
    3.8626    6.4552    2.9457 C   0  0  0  0  0  0  0  0  0  0  0  0
    4.2170    7.9305    4.8325 C   0  0  0  0  0  3  0  0  0  0  0  0
    3.5751    8.3018    6.1836 C   0  0  0  0  0  0  0  0  0  0  0  0
    2.8019    9.6268    5.9939 C   0  0  0  0  0  0  0  0  0  0  0  0
    3.1321   10.4866    7.2304 C   0  0  1  0  0  0  0  0  0  0  0  0
    3.0117    9.7839    8.5289 C   0  0  0  0  0  0  0  0  0  0  0  0
    4.7122   10.8542    7.1181 C   0  0  0  0  0  0  0  0  0  0  0  0
    4.8323   12.2357    6.4806 C   0  0  0  0  0  0  0  0  0  0  0  0
    4.2084   13.1748    7.5017 C   0  0  0  0  0  0  0  0  0  0  0  0
    4.7004   12.9685    8.9434 C   0  0  0  0  0  3  0  0  0  0  0  0
    5.9977   13.8778    9.0976 C   0  0  0  0  0  0  0  0  0  0  0  0
    6.4819   13.9714   10.5147 C   0  0  0  0  0  0  0  0  0  0  0  0
    3.2581   14.0786    7.2815 C   0  0  0  0  0  0  0  0  0  0  0  0
    2.8233   14.8309    8.2494 O   0  0  0  0  0  0  0  0  0  0  0  0
    2.6925   14.2060    5.7892 C   0  0  0  0  0  0  0  0  0  0  0  0
    3.8212   14.3119    5.1018 C   0  0  0  0  0  0  0  0  0  0  0  0
    5.0605   14.4173    4.3588 C   0  0  0  0  0  0  0  0  0  0  0  0
    6.4950   14.5312    3.5305 C   0  0  0  0  0  0  0  0  0  0  0  0
    6.6524   15.8251    3.6404 O   0  0  0  0  0  0  0  0  0  0  0  0
    8.0102   16.0749    2.7937 C   0  0  0  0  0  0  0  0  0  0  0  0
    6.8504   13.1485    3.0629 S   0  0  2  0  0  0  0  0  0  0  0  0
    7.1115   12.9258    1.2346 C   0  0  0  0  0  0  0  0  0  0  0  0
  1  2  1  0
  2  3  1  1
  2  4  1  0
  4  5  1  0
  5  6  1  0
  6  7  1  0
  7  8  1  6
  7  9  1  0
  9 10  1  0
 10 11  1  0
 11 12  1  0
 12 13  1  1
 12 14  1  0
 14 15  1  0
 15 16  1  0
 16 17  1  0
 17 18  1  0
 18 19  1  0
 16 20  2  3
 20 21  1  0
 20 22  1  0
 22 23  1  0
 23 24  3  0
 24 25  1  0
 25 26  1  0
 26 27  1  0
 25 28  2  0
 28 29  1  6
  1 28  2  0
M  RAD  2   9   2  17   2
M  END
>  <docking_score>  (2) 
-4.2690000000000001

$$$$

     RDKit          3D

 29 29  0  0  0  0  0  0  0  0999 V2000
    5.2676   10.9179    3.1952 C   0  0  0  0  0  0  0  0  0  0  0  0
    4.3335   10.2404    2.3775 C   0  0  2  0  0  0  0  0  0  0  0  0
    2.9105   10.8949    2.5256 C   0  0  0  0  0  0  0  0  0  0  0  0
    3.9615    8.7437    2.8796 C   0  0  0  0  0  0  0  0  0  0  0  0
    3.1087    8.8333    4.0890 C   0  0  0  0  0  0  0  0  0  0  0  0
    2.2576    7.5192    4.2129 C   0  0  0  0  0  0  0  0  0  0  0  0
    2.8748    6.7621    5.3578 C   0  0  1  0  0  0  0  0  0  0  0  0
    3.5540    5.4788    4.8006 C   0  0  0  0  0  0  0  0  0  0  0  0
    3.9497    7.4751    6.1123 C   0  0  0  0  0  3  0  0  0  0  0  0
    3.3214    8.2772    7.2686 C   0  0  0  0  0  0  0  0  0  0  0  0
    2.5791    9.4880    6.6584 C   0  0  0  0  0  0  0  0  0  0  0  0
    2.9338   10.6927    7.5529 C   0  0  1  0  0  0  0  0  0  0  0  0
    2.8012   10.4493    9.0082 C   0  0  0  0  0  0  0  0  0  0  0  0
    4.5217   10.9672    7.3350 C   0  0  0  0  0  0  0  0  0  0  0  0
    4.6723   12.0660    6.2865 C   0  0  0  0  0  0  0  0  0  0  0  0
    4.0743   13.2987    6.9475 C   0  0  0  0  0  0  0  0  0  0  0  0
    4.5662   13.5568    8.3808 C   0  0  0  0  0  3  0  0  0  0  0  0
    6.0702   14.0597    8.2436 C   0  0  0  0  0  0  0  0  0  0  0  0
    6.1710   15.4991    7.8324 C   0  0  0  0  0  0  0  0  0  0  0  0
    3.1449   14.1052    6.4434 C   0  0  0  0  0  0  0  0  0  0  0  0
    2.7313   15.1395    7.1151 O   0  0  0  0  0  0  0  0  0  0  0  0
    2.5774   13.7577    4.9873 C   0  0  0  0  0  0  0  0  0  0  0  0
    3.7059   13.6097    4.3074 C   0  0  0  0  0  0  0  0  0  0  0  0
    4.9447   13.4408    3.5756 C   0  0  0  0  0  0  0  0  0  0  0  0
    6.3787   13.2477    2.7611 C   0  0  0  0  0  0  0  0  0  0  0  0
    6.5670   14.5038    2.4485 O   0  0  0  0  0  0  0  0  0  0  0  0
    7.0830   15.1287    3.8508 C   0  0  0  0  0  0  0  0  0  0  0  0
    6.6997   11.7801    2.7660 S   0  0  2  0  0  0  0  0  0  0  0  0
    6.9492   10.9736    1.1084 C   0  0  0  0  0  0  0  0  0  0  0  0
  1  2  1  0
  2  3  1  1
  2  4  1  0
  4  5  1  0
  5  6  1  0
  6  7  1  0
  7  8  1  6
  7  9  1  0
  9 10  1  0
 10 11  1  0
 11 12  1  0
 12 13  1  1
 12 14  1  0
 14 15  1  0
 15 16  1  0
 16 17  1  0
 17 18  1  0
 18 19  1  0
 16 20  2  3
 20 21  1  0
 20 22  1  0
 22 23  1  0
 23 24  3  0
 24 25  1  0
 25 26  1  0
 26 27  1  0
 25 28  2  0
 28 29  1  6
  1 28  2  0
M  RAD  2   9   2  17   2
M  END
>  <docking_score>  (3) 
-4.2560000000000002

$$$$
