
     RDKit          3D

 28 28  0  0  0  0  0  0  0  0999 V2000
   19.7795   -3.2933   -0.8611 C   0  0  0  0  0  0  0  0  0  0  0  0
   19.0619   -3.1964   -2.1973 C   0  0  0  0  0  0  0  0  0  0  0  0
   17.9295   -4.2187   -2.1966 C   0  0  0  0  0  0  0  0  0  0  0  0
   18.4313   -1.8296   -2.2825 C   0  0  0  0  0  0  0  0  0  0  0  0
   19.5350   -0.8064   -2.4103 C   0  0  0  0  0  0  0  0  0  0  0  0
   20.2672   -1.0331   -3.6976 C   0  0  0  0  0  0  0  0  0  0  0  0
   19.3375   -0.7314   -4.8398 C   0  0  1  0  0  0  0  0  0  0  0  0
   19.5717    0.6208   -5.4194 C   0  0  0  0  0  0  0  0  0  0  0  0
   19.4180   -1.8346   -5.8632 C   0  0  1  0  0  0  0  0  0  0  0  0
   20.3764   -2.9133   -5.4836 C   0  0  0  0  0  0  0  0  0  0  0  0
   20.1256   -4.1989   -6.2101 C   0  0  0  0  0  0  0  0  0  0  0  0
   19.7607   -5.2948   -5.2272 C   0  0  2  0  0  0  0  0  0  0  0  0
   20.9785   -6.1448   -4.8902 C   0  0  0  0  0  0  0  0  0  0  0  0
   18.6738   -6.1233   -5.8800 C   0  0  0  0  0  0  0  0  0  0  0  0
   18.5172   -7.4766   -5.2632 C   0  0  1  0  0  0  0  0  0  0  0  0
   19.1574   -7.4994   -3.9033 C   0  0  0  0  0  0  0  0  0  0  0  0
   17.1020   -7.9583   -5.2217 C   0  0  0  0  0  0  0  0  0  0  0  0
   16.1831   -7.0987   -6.0637 C   0  0  0  0  0  0  0  0  0  0  0  0
   15.4553   -6.1115   -5.2039 C   0  0  2  0  0  0  0  0  0  0  0  0
   15.3532   -6.4909   -3.8805 O   0  0  0  0  0  0  0  0  0  0  0  0
   14.1472   -5.6603   -5.7907 C   0  0  0  0  0  0  0  0  0  0  0  0
   14.1017   -4.1481   -5.7294 C   0  0  0  0  0  0  0  0  0  0  0  0
   15.4177   -3.5245   -6.1407 C   0  0  2  0  0  0  0  0  0  0  0  0
   16.1187   -4.3166   -7.2138 C   0  0  0  0  0  0  0  0  0  0  0  0
   16.2348   -3.2479   -5.0535 O   0  0  0  0  0  0  0  0  0  0  0  0
   16.9853   -2.1001   -5.3042 C   0  0  0  0  0  0  0  0  0  0  0  0
   18.0753   -2.3413   -6.2894 C   0  0  1  0  0  0  0  0  0  0  0  0
   17.7167   -1.9502   -7.7007 C   0  0  0  0  0  0  0  0  0  0  0  0
  1  2  1  0
  2  3  1  0
  2  4  1  0
  4  5  1  0
  5  6  1  0
  6  7  1  0
  7  8  1  6
  7  9  1  0
  9 10  1  1
 10 11  1  0
 11 12  1  0
 12 13  1  6
 12 14  1  0
 14 15  1  0
 15 16  1  1
 15 17  1  0
 17 18  1  0
 18 19  1  0
 19 20  1  1
 19 21  1  0
 21 22  1  0
 22 23  1  0
 23 24  1  6
 23 25  1  0
 25 26  1  0
 26 27  1  0
 27 28  1  6
 27  9  1  0
M  END
>  <docking_score>  (1) 
-5.3929999999999998

$$$$

     RDKit          3D

 28 28  0  0  0  0  0  0  0  0999 V2000
    3.3775    5.0719    4.9982 C   0  0  0  0  0  0  0  0  0  0  0  0
    3.2613    6.5785    4.8361 C   0  0  0  0  0  0  0  0  0  0  0  0
    2.2718    7.0875    5.8797 C   0  0  0  0  0  0  0  0  0  0  0  0
    4.6046    7.1809    5.1611 C   0  0  0  0  0  0  0  0  0  0  0  0
    4.6267    8.5978    4.6384 C   0  0  0  0  0  0  0  0  0  0  0  0
    5.1341    9.5093    5.7137 C   0  0  0  0  0  0  0  0  0  0  0  0
    4.3076   10.7652    5.7099 C   0  0  1  0  0  0  0  0  0  0  0  0
    3.4477   10.8741    4.4983 C   0  0  0  0  0  0  0  0  0  0  0  0
    3.5297   10.8633    6.9968 C   0  0  1  0  0  0  0  0  0  0  0  0
    3.7814    9.7178    7.9191 C   0  0  0  0  0  0  0  0  0  0  0  0
    3.4172   10.0216    9.3398 C   0  0  0  0  0  0  0  0  0  0  0  0
    4.6475    9.9511   10.2239 C   0  0  2  0  0  0  0  0  0  0  0  0
    4.7366    8.5985   10.9177 C   0  0  0  0  0  0  0  0  0  0  0  0
    4.5296   11.0790   11.2278 C   0  0  0  0  0  0  0  0  0  0  0  0
    5.4006   10.8893   12.4285 C   0  0  1  0  0  0  0  0  0  0  0  0
    6.4727    9.8783   12.1318 C   0  0  0  0  0  0  0  0  0  0  0  0
    5.9690   12.1637   12.9663 C   0  0  0  0  0  0  0  0  0  0  0  0
    5.3140   13.3830   12.3525 C   0  0  0  0  0  0  0  0  0  0  0  0
    6.1626   13.9335   11.2478 C   0  0  2  0  0  0  0  0  0  0  0  0
    7.4976   13.5962   11.3469 O   0  0  0  0  0  0  0  0  0  0  0  0
    5.9416   15.3995   11.0005 C   0  0  0  0  0  0  0  0  0  0  0  0
    5.7368   15.5992    9.5136 C   0  0  0  0  0  0  0  0  0  0  0  0
    4.8286   14.5443    8.9200 C   0  0  2  0  0  0  0  0  0  0  0  0
    3.7539   14.1045    9.8802 C   0  0  0  0  0  0  0  0  0  0  0  0
    5.5366   13.4805    8.3785 O   0  0  0  0  0  0  0  0  0  0  0  0
    4.8589   12.9752    7.2699 C   0  0  0  0  0  0  0  0  0  0  0  0
    3.6442   12.2041    7.6530 C   0  0  1  0  0  0  0  0  0  0  0  0
    2.3689   13.0057    7.5856 C   0  0  0  0  0  0  0  0  0  0  0  0
  1  2  1  0
  2  3  1  0
  2  4  1  0
  4  5  1  0
  5  6  1  0
  6  7  1  0
  7  8  1  6
  7  9  1  0
  9 10  1  1
 10 11  1  0
 11 12  1  0
 12 13  1  1
 12 14  1  0
 14 15  1  0
 15 16  1  6
 15 17  1  0
 17 18  1  0
 18 19  1  0
 19 20  1  1
 19 21  1  0
 21 22  1  0
 22 23  1  0
 23 24  1  1
 23 25  1  0
 25 26  1  0
 26 27  1  0
 27 28  1  6
 27  9  1  0
M  END
>  <docking_score>  (2) 
-3.2679999999999998

$$$$

     RDKit          3D

 28 28  0  0  0  0  0  0  0  0999 V2000
   21.2962   -0.9057   -0.9279 C   0  0  0  0  0  0  0  0  0  0  0  0
   21.2096   -2.2642   -1.6035 C   0  0  0  0  0  0  0  0  0  0  0  0
   20.8517   -3.2958   -0.5382 C   0  0  0  0  0  0  0  0  0  0  0  0
   20.0655   -2.2179   -2.5844 C   0  0  0  0  0  0  0  0  0  0  0  0
   19.1268   -1.1115   -2.1646 C   0  0  0  0  0  0  0  0  0  0  0  0
   17.7844   -1.3447   -2.7874 C   0  0  0  0  0  0  0  0  0  0  0  0
   17.0434   -2.3634   -1.9667 C   0  0  1  0  0  0  0  0  0  0  0  0
   16.3773   -1.7588   -0.7793 C   0  0  0  0  0  0  0  0  0  0  0  0
   16.0934   -3.1309   -2.8495 C   0  0  1  0  0  0  0  0  0  0  0  0
   15.6847   -2.3703   -4.0664 C   0  0  0  0  0  0  0  0  0  0  0  0
   15.1542   -3.2520   -5.1548 C   0  0  0  0  0  0  0  0  0  0  0  0
   16.0379   -3.1582   -6.3839 C   0  0  2  0  0  0  0  0  0  0  0  0
   15.4561   -2.1775   -7.3931 C   0  0  0  0  0  0  0  0  0  0  0  0
   16.1310   -4.5547   -6.9628 C   0  0  0  0  0  0  0  0  0  0  0  0
   16.5760   -4.5696   -8.3905 C   0  0  1  0  0  0  0  0  0  0  0  0
   17.2276   -3.2608   -8.7399 C   0  0  0  0  0  0  0  0  0  0  0  0
   17.4456   -5.7358   -8.7370 C   0  0  0  0  0  0  0  0  0  0  0  0
   17.4503   -6.7864   -7.6467 C   0  0  0  0  0  0  0  0  0  0  0  0
   18.6666   -6.6415   -6.7846 C   0  0  2  0  0  0  0  0  0  0  0  0
   19.7192   -5.9998   -7.4058 O   0  0  0  0  0  0  0  0  0  0  0  0
   19.0726   -7.9202   -6.1069 C   0  0  0  0  0  0  0  0  0  0  0  0
   19.2947   -7.6236   -4.6388 C   0  0  0  0  0  0  0  0  0  0  0  0
   18.2141   -6.7288   -4.0718 C   0  0  2  0  0  0  0  0  0  0  0  0
   16.8681   -6.9844   -4.6990 C   0  0  0  0  0  0  0  0  0  0  0  0
   18.5728   -5.3882   -4.0918 O   0  0  0  0  0  0  0  0  0  0  0  0
   18.0206   -4.7330   -2.9922 C   0  0  0  0  0  0  0  0  0  0  0  0
   16.5530   -4.5268   -3.1352 C   0  0  1  0  0  0  0  0  0  0  0  0
   15.7212   -5.5763   -2.4424 C   0  0  0  0  0  0  0  0  0  0  0  0
  1  2  1  0
  2  3  1  0
  2  4  1  0
  4  5  1  0
  5  6  1  0
  6  7  1  0
  7  8  1  1
  7  9  1  0
  9 10  1  6
 10 11  1  0
 11 12  1  0
 12 13  1  6
 12 14  1  0
 14 15  1  0
 15 16  1  1
 15 17  1  0
 17 18  1  0
 18 19  1  0
 19 20  1  6
 19 21  1  0
 21 22  1  0
 22 23  1  0
 23 24  1  6
 23 25  1  0
 25 26  1  0
 26 27  1  0
 27 28  1  1
 27  9  1  0
M  END
>  <docking_score>  (3) 
-3.0569999999999999

$$$$
