
     RDKit          3D

 17 19  0  0  0  0  0  0  0  0999 V2000
   14.2286   -5.9862   -5.5626 C   0  0  0  0  0  0  0  0  0  0  0  0
   15.5555   -5.5986   -5.8666 O   0  0  0  0  0  0  0  0  0  0  0  0
   15.8921   -4.2259   -5.7169 C   0  0  0  0  0  0  0  0  0  0  0  0
   15.7262   -3.4665   -6.8493 C   0  0  0  0  0  0  0  0  0  0  0  0
   15.4917   -2.8566   -8.1273 C   0  0  0  0  0  0  0  0  0  0  0  0
   15.9285   -2.1169   -7.0749 C   0  0  0  0  0  0  0  0  0  0  0  0
   16.3625   -1.1587   -6.1808 C   0  0  0  0  0  0  0  0  0  0  0  0
   15.3577   -0.3672   -5.6003 C   0  0  0  0  0  0  0  0  0  0  0  0
   14.4899   -1.0597   -4.7482 C   0  0  0  0  0  0  0  0  0  0  0  0
   13.2758   -0.5988   -4.7473 O   0  0  0  0  0  0  0  0  0  0  0  0
   14.7828   -2.0503   -4.0147 O   0  0  0  0  0  0  0  0  0  0  0  0
   15.7998   -2.7693   -3.7305 C   0  0  0  0  0  0  0  0  0  0  0  0
   16.4628   -2.5275   -2.4982 C   0  0  0  0  0  0  0  0  0  0  0  0
   17.5457   -3.2122   -2.0687 C   0  0  0  0  0  0  0  0  0  0  0  0
   18.0459   -4.1976   -2.8520 C   0  0  0  0  0  0  0  0  0  0  0  0
   17.4729   -4.4859   -4.0339 C   0  0  0  0  0  0  0  0  0  0  0  0
   16.3418   -3.7815   -4.4984 C   0  0  0  0  0  0  0  0  0  0  0  0
  1  2  1  0
  2  3  1  0
  3  4  2  0
  4  5  1  0
  5  6  2  0
  6  7  1  0
  7  8  2  0
  8  9  1  0
  9 10  2  0
  9 11  1  0
 11 12  1  0
 12 13  2  0
 13 14  1  0
 14 15  2  0
 15 16  1  0
 16 17  2  0
 17  3  1  0
  6  4  1  0
 17 12  1  0
M  END
>  <docking_score>  (1) 
-5.5899999999999999

$$$$

     RDKit          3D

 17 19  0  0  0  0  0  0  0  0999 V2000
   15.3349   -6.9303   -4.9680 C   0  0  0  0  0  0  0  0  0  0  0  0
   15.3667   -5.8749   -4.0255 O   0  0  0  0  0  0  0  0  0  0  0  0
   15.7545   -4.5884   -4.4891 C   0  0  0  0  0  0  0  0  0  0  0  0
   15.3215   -4.2790   -5.7553 C   0  0  0  0  0  0  0  0  0  0  0  0
   14.7828   -4.1532   -7.0798 C   0  0  0  0  0  0  0  0  0  0  0  0
   15.4841   -3.1354   -6.5162 C   0  0  0  0  0  0  0  0  0  0  0  0
   16.1468   -1.9728   -6.1769 C   0  0  0  0  0  0  0  0  0  0  0  0
   15.3353   -0.9175   -5.7287 C   0  0  0  0  0  0  0  0  0  0  0  0
   14.6987   -1.1513   -4.5045 C   0  0  0  0  0  0  0  0  0  0  0  0
   13.5325   -0.5889   -4.4030 O   0  0  0  0  0  0  0  0  0  0  0  0
   15.1497   -1.8336   -3.5370 O   0  0  0  0  0  0  0  0  0  0  0  0
   16.1926   -2.5090   -3.2401 C   0  0  0  0  0  0  0  0  0  0  0  0
   17.1495   -1.9117   -2.3774 C   0  0  0  0  0  0  0  0  0  0  0  0
   18.2934   -2.5099   -1.9781 C   0  0  0  0  0  0  0  0  0  0  0  0
   18.5621   -3.7619   -2.4198 C   0  0  0  0  0  0  0  0  0  0  0  0
   17.7042   -4.3940   -3.2401 C   0  0  0  0  0  0  0  0  0  0  0  0
   16.5051   -3.7848   -3.6673 C   0  0  0  0  0  0  0  0  0  0  0  0
  1  2  1  0
  2  3  1  0
  3  4  2  0
  4  5  1  0
  5  6  2  0
  6  7  1  0
  7  8  2  0
  8  9  1  0
  9 10  2  0
  9 11  1  0
 11 12  1  0
 12 13  2  0
 13 14  1  0
 14 15  2  0
 15 16  1  0
 16 17  2  0
 17  3  1  0
  6  4  1  0
 17 12  1  0
M  END
>  <docking_score>  (2) 
-5.5300000000000002

$$$$
