
     RDKit          3D

 67 69  0  0  0  0  0  0  0  0999 V2000
   21.2931    2.4397   -4.3443 C   0  0  0  0  0  0  0  0  0  0  0  0
   20.4680    1.3430   -4.4362 O   0  0  0  0  0  0  0  0  0  0  0  0
   21.0772    0.1565   -4.0281 C   0  0  0  0  0  3  0  0  0  0  0  0
   20.2809   -0.3833   -3.0164 O   0  0  0  0  0  0  0  0  0  0  0  0
   19.0977   -0.8824   -3.6039 C   0  0  2  0  0  0  0  0  0  0  0  0
   17.9482   -0.3203   -2.8097 C   0  0  0  0  0  0  0  0  0  0  0  0
   19.1609   -2.3772   -3.5928 C   0  0  0  0  0  3  0  0  0  0  0  0
   19.0165   -2.8824   -5.0038 C   0  0  1  0  0  0  0  0  0  0  0  0
   20.3151   -3.3462   -5.6014 C   0  0  0  0  0  3  0  0  0  0  0  0
   20.5616   -4.8123   -5.4465 C   0  0  0  0  0  0  0  0  0  0  0  0
   20.0116   -5.2645   -4.1119 C   0  0  2  0  0  0  0  0  0  0  0  0
   21.1080   -5.5735   -3.1169 C   0  0  0  0  0  0  0  0  0  0  0  0
   19.1923   -6.3569   -4.3460 O   0  0  0  0  0  0  0  0  0  0  0  0
   17.8767   -5.9834   -4.1367 C   0  0  1  0  0  0  0  0  0  0  0  0
   17.7571   -4.6229   -3.9886 O   0  0  0  0  0  0  0  0  0  0  0  0
   16.9524   -6.5677   -5.1762 C   0  0  2  0  0  0  0  0  0  0  0  0
   17.4570   -6.4118   -6.5759 C   0  0  0  0  0  3  0  0  0  0  0  0
   16.9937   -7.5670   -7.4030 C   0  0  2  0  0  0  0  0  0  0  0  0
   18.0894   -8.5575   -7.7220 C   0  0  0  0  0  0  0  0  0  0  0  0
   19.0199   -8.6787   -6.7021 O   0  0  0  0  0  0  0  0  0  0  0  0
   20.1709   -9.2614   -7.2119 C   0  0  0  0  0  3  0  0  0  0  0  0
   21.3769   -8.3571   -7.0095 C   0  0  0  0  0  2  0  0  0  0  0  0
   16.4353   -7.1183   -8.6059 O   0  0  0  0  0  0  0  0  0  0  0  0
   16.3629   -5.7249   -8.6046 C   0  0  0  0  0  2  0  0  0  0  0  0
   15.5535   -6.0599   -4.9756 C   0  0  0  0  0  0  0  0  0  0  0  0
   15.6165   -4.9093   -4.1958 O   0  0  0  0  0  0  0  0  0  0  0  0
   17.9057   -3.8993   -5.1490 C   0  0  1  0  0  0  0  0  0  0  0  0
   16.6398   -3.1285   -5.4596 C   0  0  2  0  0  0  0  0  0  0  0  0
   16.7434   -1.7917   -4.7262 C   0  0  0  0  0  0  0  0  0  0  0  0
   15.3991   -3.8125   -4.9922 C   0  0  1  0  0  0  0  0  0  0  0  0
   14.5013   -4.1965   -6.1436 C   0  0  0  0  0  3  0  0  0  0  0  0
   13.1775   -3.9390   -5.7324 O   0  0  0  0  0  0  0  0  0  0  0  0
   13.2514   -2.8421   -4.8795 C   0  0  0  0  0  0  0  0  0  0  0  0
   13.4908   -1.6939   -5.6113 O   0  0  0  0  0  0  0  0  0  0  0  0
   12.9989   -0.5803   -4.9693 C   0  0  2  0  0  0  0  0  0  0  0  0
   13.9982    0.1585   -4.1352 C   0  0  0  0  0  2  0  0  0  0  0  0
   11.8623   -0.8576   -4.2161 O   0  0  0  0  0  0  0  0  0  0  0  0
   10.7413   -0.5242   -4.9601 C   0  0  0  0  0  3  0  0  0  0  0  0
    9.5290   -1.2371   -4.4468 C   0  0  2  0  0  0  0  0  0  0  0  0
    8.5171   -1.6187   -5.3333 O   0  0  0  0  0  0  0  0  0  0  0  0
    8.2785   -0.5602   -4.3550 C   0  0  1  0  0  0  0  0  0  0  0  0
    7.3083   -0.9721   -3.4439 O   0  0  0  0  0  0  0  0  0  0  0  0
    7.8119   -0.8877   -2.2419 O   0  0  0  0  0  0  0  0  0  0  0  0
    8.7355   -1.9124   -2.0593 C   0  0  0  0  0  3  0  0  0  0  0  0
   10.0988   -1.2748   -1.8945 C   0  0  0  0  0  3  0  0  0  0  0  0
   11.0593   -2.3566   -1.4221 C   0  0  0  0  0  3  0  0  0  0  0  0
   12.0488   -1.7659   -0.4327 C   0  0  0  0  0  0  0  0  0  0  0  0
   12.2373   -2.7904    0.6746 C   0  0  1  0  0  0  0  0  0  0  0  0
   11.5420   -3.9301    0.2921 O   0  0  0  0  0  0  0  0  0  0  0  0
   13.7364   -3.0682    0.7550 C   0  0  0  0  0  3  0  0  0  0  0  0
   13.9938   -4.5483    0.8696 C   0  0  0  0  0  3  0  0  0  0  0  0
   14.4886   -4.9876   -0.3665 O   0  0  0  0  0  0  0  0  0  0  0  0
   15.7845   -5.4101   -0.1879 C   0  0  2  0  0  0  0  0  0  0  0  0
   16.1699   -6.3718   -1.3124 C   0  0  0  0  0  2  0  0  0  0  0  0
   15.9320   -6.1088    1.0019 O   0  0  0  0  0  0  0  0  0  0  0  0
   16.5666   -5.3604    1.8771 O   0  0  0  0  0  0  0  0  0  0  0  0
   17.2929   -4.3436    1.2245 C   0  0  2  0  0  0  0  0  0  0  0  0
   16.8808   -2.9869    1.7428 C   0  0  0  0  0  2  0  0  0  0  0  0
   16.9326   -4.3610   -0.2663 C   0  0  0  0  0  3  0  0  0  0  0  0
   18.0803   -4.4107   -1.0468 O   0  0  0  0  0  0  0  0  0  0  0  0
   18.3418   -3.0955   -1.4860 C   0  0  2  0  0  0  0  0  0  0  0  0
   19.3798   -2.5362   -0.7156 O   0  0  0  0  0  0  0  0  0  0  0  0
   17.0957   -2.2863   -1.1951 C   0  0  0  0  0  3  0  0  0  0  0  0
   15.9480   -2.8233   -2.0297 C   0  0  0  0  0  3  0  0  0  0  0  0
   15.1165   -1.7267   -2.3360 O   0  0  0  0  0  0  0  0  0  0  0  0
   15.3195   -0.7456   -1.3714 C   0  0  0  0  0  3  0  0  0  0  0  0
   14.8819   -1.1869   -0.0112 C   0  0  0  0  0  2  0  0  0  0  0  0
  1  2  1  0
  2  3  1  0
  3  4  1  0
  4  5  1  0
  5  6  1  1
  5  7  1  0
  8  7  1  1
  8  9  1  0
  9 10  1  0
 10 11  1  0
 11 12  1  1
 11 13  1  0
 14 13  1  6
 14 15  1  0
 14 16  1  0
 16 17  1  6
 18 17  1  6
 18 19  1  0
 19 20  1  0
 20 21  1  0
 21 22  1  0
 18 23  1  0
 23 24  1  0
 16 25  1  0
 25 26  1  0
  8 27  1  0
 27 28  1  0
 28 29  1  1
 28 30  1  0
 30 31  1  6
 31 32  1  0
 32 33  1  0
 33 34  1  0
 34 35  1  0
 35 36  1  1
 35 37  1  0
 37 38  1  0
 39 38  1  6
 39 40  1  0
 39 41  1  0
 41 42  1  1
 42 43  1  0
 43 44  1  0
 44 45  1  0
 45 46  1  0
 46 47  1  0
 47 48  1  0
 48 49  1  6
 48 50  1  0
 50 51  1  0
 51 52  1  0
 52 53  1  0
 53 54  1  6
 53 55  1  0
 55 56  1  0
 56 57  1  0
 57 58  1  1
 57 59  1  0
 59 60  1  0
 60 61  1  0
 61 62  1  1
 61 63  1  0
 63 64  1  0
 64 65  1  0
 65 66  1  0
 66 67  1  0
 27 15  1  1
 30 26  1  0
 41 40  1  0
M  RAD  8   3   2   7   2   9   2  17   2  21   2  22   3  24   3  31   2
M  RAD  8  36   3  38   2  44   2  45   2  46   2  50   2  51   2  54   3
M  RAD  6  58   3  59   2  63   2  64   2  66   2  67   3
M  END
>  <docking_score>  (1) 
34.780999999999999

$$$$
