
     RDKit          3D

 11 11  0  0  0  0  0  0  0  0999 V2000
   15.8577   -1.1879   -1.7865 O   0  0  0  0  0  0  0  0  0  0  0  0
   16.8890   -2.0404   -2.2215 C   0  0  0  0  0  0  0  0  0  0  0  0
   16.5031   -2.5899   -3.5434 C   0  0  2  0  0  0  0  0  0  0  0  0
   15.6617   -1.7495   -4.3350 N   0  0  0  0  0  0  0  0  0  0  0  0
   14.5780   -2.5031   -4.9212 C   0  0  0  0  0  0  0  0  0  0  0  0
   15.0283   -3.6717   -5.7358 C   0  0  2  0  0  0  0  0  0  0  0  0
   13.9456   -4.5382   -5.9256 O   0  0  0  0  0  0  0  0  0  0  0  0
   16.0811   -4.4925   -4.9804 C   0  0  1  0  0  0  0  0  0  0  0  0
   17.3468   -4.0590   -5.4374 O   0  0  0  0  0  0  0  0  0  0  0  0
   15.9970   -3.9903   -3.5327 C   0  0  1  0  0  0  0  0  0  0  0  0
   16.6444   -4.8269   -2.6579 O   0  0  0  0  0  0  0  0  0  0  0  0
  1  2  1  0
  3  2  1  1
  3  4  1  0
  4  5  1  0
  5  6  1  0
  6  7  1  1
  6  8  1  0
  8  9  1  6
  8 10  1  0
 10 11  1  1
 10  3  1  0
M  END
>  <docking_score>  (1) 
-3.3900000000000001

$$$$

     RDKit          3D

 11 11  0  0  0  0  0  0  0  0999 V2000
   14.9977   -3.3941   -7.1000 O   0  0  0  0  0  0  0  0  0  0  0  0
   15.3752   -2.2581   -6.3607 C   0  0  0  0  0  0  0  0  0  0  0  0
   16.0969   -2.7176   -5.1497 C   0  0  2  0  0  0  0  0  0  0  0  0
   16.6094   -4.0497   -5.2098 N   0  0  0  0  0  0  0  0  0  0  0  0
   16.3300   -4.7696   -3.9893 C   0  0  0  0  0  0  0  0  0  0  0  0
   16.8397   -4.0915   -2.7596 C   0  0  2  0  0  0  0  0  0  0  0  0
   16.2004   -4.6378   -1.6406 O   0  0  0  0  0  0  0  0  0  0  0  0
   16.4641   -2.6043   -2.7591 C   0  0  1  0  0  0  0  0  0  0  0  0
   17.5821   -1.8972   -3.2582 O   0  0  0  0  0  0  0  0  0  0  0  0
   15.3996   -2.4740   -3.8567 C   0  0  1  0  0  0  0  0  0  0  0  0
   14.7273   -1.2794   -3.7844 O   0  0  0  0  0  0  0  0  0  0  0  0
  1  2  1  0
  3  2  1  6
  3  4  1  0
  4  5  1  0
  5  6  1  0
  6  7  1  1
  6  8  1  0
  8  9  1  6
  8 10  1  0
 10 11  1  6
 10  3  1  0
M  END
>  <docking_score>  (2) 
-3.3279999999999998

$$$$

     RDKit          3D

 11 11  0  0  0  0  0  0  0  0999 V2000
   14.2769   -1.5537   -4.7298 O   0  0  0  0  0  0  0  0  0  0  0  0
   14.9064   -2.7920   -4.9536 C   0  0  0  0  0  0  0  0  0  0  0  0
   15.7506   -3.0974   -3.7737 C   0  0  2  0  0  0  0  0  0  0  0  0
   16.1428   -1.9683   -2.9914 N   0  0  0  0  0  0  0  0  0  0  0  0
   17.5444   -2.0344   -2.6493 C   0  0  0  0  0  0  0  0  0  0  0  0
   17.9338   -3.2924   -1.9440 C   0  0  2  0  0  0  0  0  0  0  0  0
   19.3246   -3.4373   -2.0064 O   0  0  0  0  0  0  0  0  0  0  0  0
   17.3623   -4.5217   -2.6616 C   0  0  1  0  0  0  0  0  0  0  0  0
   16.1632   -4.8662   -1.9965 O   0  0  0  0  0  0  0  0  0  0  0  0
   16.9107   -3.9950   -4.0304 C   0  0  1  0  0  0  0  0  0  0  0  0
   16.6629   -5.0120   -4.9185 O   0  0  0  0  0  0  0  0  0  0  0  0
  1  2  1  0
  3  2  1  6
  3  4  1  0
  4  5  1  0
  5  6  1  0
  6  7  1  6
  6  8  1  0
  8  9  1  1
  8 10  1  0
 10 11  1  6
 10  3  1  0
M  END
>  <docking_score>  (3) 
-3.3260000000000001

$$$$
