
     RDKit          3D

 39 40  0  0  0  0  0  0  0  0999 V2000
   15.3587   -1.1383   -0.9819 O   0  0  0  0  0  0  0  0  0  0  0  0
   15.0444   -0.3759   -2.2100 C   0  0  0  0  0  0  0  0  0  0  0  0
   15.1700   -1.3150   -3.3919 C   0  0  1  0  0  0  0  0  0  0  0  0
   15.0766   -0.7118   -4.6379 N   0  0  0  0  0  0  0  0  0  0  0  0
   14.2754   -1.5915   -5.5588 C   0  0  2  0  0  0  0  0  0  0  0  0
   13.7828   -2.8169   -4.8167 C   0  0  0  0  0  0  0  0  0  0  0  0
   13.3819   -3.8270   -5.7034 O   0  0  0  0  0  0  0  0  0  0  0  0
   14.2636   -4.1104   -6.7313 C   0  0  0  0  0  3  0  0  0  0  0  0
   14.6201   -2.9456   -7.4131 O   0  0  0  0  0  0  0  0  0  0  0  0
   15.3190   -2.1455   -6.5238 C   0  0  2  0  0  0  0  0  0  0  0  0
   16.0734   -3.0481   -5.7506 O   0  0  0  0  0  0  0  0  0  0  0  0
   17.4102   -2.9612   -5.9345 C   0  0  1  0  0  0  0  0  0  0  0  0
   17.8092   -4.1881   -6.6789 O   0  0  0  0  0  0  0  0  0  0  0  0
   17.9294   -1.7896   -6.6950 C   0  0  1  0  0  0  0  0  0  0  0  0
   18.0539   -0.6750   -5.8191 O   0  0  0  0  0  0  0  0  0  0  0  0
   18.4387   -1.2041   -4.5649 C   0  0  0  0  0  0  0  0  0  0  0  0
   17.5767   -0.7732   -3.5177 O   0  0  0  0  0  0  0  0  0  0  0  0
   16.6598   -1.8788   -3.3842 C   0  0  1  0  0  0  0  0  0  0  0  0
   16.8212   -2.7038   -2.3243 O   0  0  0  0  0  0  0  0  0  0  0  0
   17.8977   -2.4354   -1.4957 C   0  0  0  0  0  2  0  0  0  0  0  0
   19.0452   -1.9573   -7.3592 O   0  0  0  0  0  0  0  0  0  0  0  0
   19.8450   -2.7523   -6.7211 O   0  0  0  0  0  0  0  0  0  0  0  0
   20.8341   -1.9518   -5.9113 C   0  0  0  0  0  3  0  0  0  0  0  0
   21.3794   -3.0023   -4.9342 C   0  0  0  0  0  0  0  0  0  0  0  0
   21.3385   -4.3268   -5.8737 C   0  0  0  0  0  0  0  0  0  0  0  0
   20.1044   -4.8636   -5.4389 O   0  0  0  0  0  0  0  0  0  0  0  0
   20.3659   -5.6240   -4.3284 N   0  0  0  0  0  3  0  0  0  0  0  0
   20.0641   -5.0891   -3.1126 O   0  0  0  0  0  0  0  0  0  0  0  0
   20.4022   -6.8206   -4.3956 O   0  0  0  0  0  0  0  0  0  0  0  0
   19.1763   -7.4322   -4.4199 O   0  0  0  0  0  0  0  0  0  0  0  0
   19.1723   -8.1211   -5.4793 O   0  0  0  0  0  0  0  0  0  0  0  0
   18.3256   -7.1549   -6.6595 N   0  0  0  0  0  3  0  0  0  0  0  0
   19.3172   -6.9862   -7.4382 O   0  0  0  0  0  0  0  0  0  0  0  0
   17.8086   -8.4473   -6.8110 S   0  0  0  0  0  0  0  0  0  0  0  0
   17.2946   -9.7306   -6.9373 C   0  0  0  0  0  0  0  0  0  0  0  0
   16.5528  -11.5399   -7.1025 C   0  0  0  0  0  0  0  0  0  0  0  0
   17.8185  -11.8841   -7.9019 O   0  0  0  0  0  0  0  0  0  0  0  0
   18.4438  -13.0237   -8.1627 C   0  0  0  0  0  0  0  0  0  0  0  0
   19.4694  -13.6745   -8.5061 C   0  0  0  0  0  0  0  0  0  0  0  0
  1  2  1  0
  3  2  1  1
  3  4  1  0
  4  5  1  0
  5  6  1  1
  6  7  1  0
  7  8  1  0
  8  9  1  0
  5 10  1  0
 10 11  1  1
 11 12  1  0
 12 13  1  6
 12 14  1  0
 14 15  1  0
 15 16  1  0
 16 17  1  0
 17 18  1  0
 18 19  1  1
 19 20  1  0
 14 21  1  1
 21 22  1  0
 22 23  1  0
 23 24  1  0
 24 25  1  0
 25 26  1  0
 26 27  1  0
 27 28  1  0
 27 29  1  0
 29 30  1  0
 30 31  1  0
 31 32  1  0
 32 33  1  0
 32 34  1  0
 34 35  3  0
 35 36  1  0
 36 37  1  0
 37 38  1  0
 38 39  2  0
 18  3  1  0
 10  9  1  0
M  CHG  2  27   1  32   1
M  RAD  5   8   2  20   3  23   2  27   2  32   2
M  END
>  <docking_score>  (1) 
-1.139

$$$$

     RDKit          3D

 39 40  0  0  0  0  0  0  0  0999 V2000
   15.4872   -4.7137   -2.2564 O   0  0  0  0  0  0  0  0  0  0  0  0
   15.2717   -6.0632   -2.8226 C   0  0  0  0  0  0  0  0  0  0  0  0
   15.4007   -5.9675   -4.3289 C   0  0  1  0  0  0  0  0  0  0  0  0
   15.6526   -4.6947   -4.8202 N   0  0  0  0  0  0  0  0  0  0  0  0
   14.8568   -4.4798   -6.0790 C   0  0  2  0  0  0  0  0  0  0  0  0
   13.9981   -5.6933   -6.3703 C   0  0  0  0  0  0  0  0  0  0  0  0
   13.5544   -5.7004   -7.7009 O   0  0  0  0  0  0  0  0  0  0  0  0
   14.5216   -5.4545   -8.6591 C   0  0  0  0  0  3  0  0  0  0  0  0
   15.2263   -4.2864   -8.3630 O   0  0  0  0  0  0  0  0  0  0  0  0
   15.9124   -4.5081   -7.1799 C   0  0  2  0  0  0  0  0  0  0  0  0
   16.3159   -5.8549   -7.2500 O   0  0  0  0  0  0  0  0  0  0  0  0
   17.6526   -6.0343   -7.3485 C   0  0  1  0  0  0  0  0  0  0  0  0
   17.9088   -6.5036   -8.7387 O   0  0  0  0  0  0  0  0  0  0  0  0
   18.5288   -4.8532   -7.1079 C   0  0  1  0  0  0  0  0  0  0  0  0
   18.7301   -4.6912   -5.7086 O   0  0  0  0  0  0  0  0  0  0  0  0
   18.7729   -5.9968   -5.1658 C   0  0  0  0  0  0  0  0  0  0  0  0
   17.8521   -6.1580   -4.0926 O   0  0  0  0  0  0  0  0  0  0  0  0
   16.7154   -6.7692   -4.7369 C   0  0  1  0  0  0  0  0  0  0  0  0
   16.5148   -8.0916   -4.5343 O   0  0  0  0  0  0  0  0  0  0  0  0
   15.8502   -8.7729   -5.5401 C   0  0  0  0  0  2  0  0  0  0  0  0
   19.6826   -4.8314   -7.7265 O   0  0  0  0  0  0  0  0  0  0  0  0
   20.3438   -3.7577   -7.4284 O   0  0  0  0  0  0  0  0  0  0  0  0
   19.6535   -2.5471   -8.0055 C   0  0  0  0  0  3  0  0  0  0  0  0
   20.7807   -1.5054   -8.0169 C   0  0  0  0  0  0  0  0  0  0  0  0
   20.4291   -0.6771   -6.6646 C   0  0  0  0  0  0  0  0  0  0  0  0
   20.1528   -1.7676   -5.8074 O   0  0  0  0  0  0  0  0  0  0  0  0
   19.3525   -1.2941   -4.7999 N   0  0  0  0  0  3  0  0  0  0  0  0
   19.2792    0.0559   -4.6344 O   0  0  0  0  0  0  0  0  0  0  0  0
   18.4236   -1.9366   -4.3974 O   0  0  0  0  0  0  0  0  0  0  0  0
   17.2135   -1.6038   -4.9472 O   0  0  0  0  0  0  0  0  0  0  0  0
   16.3517   -1.9988   -4.1116 O   0  0  0  0  0  0  0  0  0  0  0  0
   14.8850   -1.1459   -4.5174 N   0  0  0  0  0  3  0  0  0  0  0  0
   14.1583   -2.1799   -4.6616 O   0  0  0  0  0  0  0  0  0  0  0  0
   15.0901   -0.8872   -3.1566 S   0  0  0  0  0  0  0  0  0  0  0  0
   15.3165   -0.6267   -1.8120 C   0  0  0  0  0  0  0  0  0  0  0  0
   15.6470   -0.2412    0.0835 C   0  0  0  0  0  0  0  0  0  0  0  0
   15.0708   -1.6358    0.3706 O   0  0  0  0  0  0  0  0  0  0  0  0
   15.4223   -2.8571   -0.0071 C   0  0  0  0  0  0  0  0  0  0  0  0
   16.0635   -3.9309    0.1633 C   0  0  0  0  0  0  0  0  0  0  0  0
  1  2  1  0
  3  2  1  1
  3  4  1  0
  4  5  1  0
  5  6  1  6
  6  7  1  0
  7  8  1  0
  8  9  1  0
  5 10  1  0
 10 11  1  6
 11 12  1  0
 12 13  1  6
 12 14  1  0
 14 15  1  0
 15 16  1  0
 16 17  1  0
 17 18  1  0
 18 19  1  1
 19 20  1  0
 14 21  1  6
 21 22  1  0
 22 23  1  0
 23 24  1  0
 24 25  1  0
 25 26  1  0
 26 27  1  0
 27 28  1  0
 27 29  1  0
 29 30  1  0
 30 31  1  0
 31 32  1  0
 32 33  1  0
 32 34  1  0
 34 35  3  0
 35 36  1  0
 36 37  1  0
 37 38  1  0
 38 39  2  0
 18  3  1  0
 10  9  1  0
M  CHG  2  27   1  32   1
M  RAD  5   8   2  20   3  23   2  27   2  32   2
M  END
>  <docking_score>  (2) 
1.595

$$$$
