
     RDKit          3D

 83 83  0  0  0  0  0  0  0  0999 V2000
    4.5936    0.5624   -0.3955 C   0  0  0  0  0  0  0  0  0  0  0  0
    5.7104   -0.3774   -0.0498 C   0  0  0  0  0  0  0  0  0  0  0  0
    6.3270   -0.0070    0.4670 C   0  0  0  0  0  0  0  0  0  0  0  0
    5.6969   -1.7831   -0.5733 C   0  0  0  0  0  0  0  0  0  0  0  0
    5.8618   -1.4796   -2.0330 C   0  0  0  0  0  0  0  0  0  0  0  0
    6.0080   -1.6221   -3.5191 C   0  0  0  0  0  0  0  0  0  0  0  0
    6.1226   -2.1978   -4.8994 C   0  0  0  0  0  0  0  0  0  0  0  0
    6.2630   -0.9159   -5.6655 C   0  0  0  0  0  0  0  0  0  0  0  0
    6.1953   -3.1558   -6.0514 C   0  0  0  0  0  3  0  0  0  0  0  0
    6.2196   -4.4107   -6.8727 C   0  0  0  0  0  0  0  0  0  0  0  0
    6.1935   -5.8512   -7.2903 C   0  0  0  0  0  0  0  0  0  0  0  0
    6.1193   -7.3492   -7.2671 C   0  0  0  0  0  0  0  0  0  0  0  0
    6.2587   -7.6027   -8.7389 C   0  0  0  0  0  0  0  0  0  0  0  0
    6.0035   -8.7716   -6.8052 C   0  0  0  0  0  3  0  0  0  0  0  0
    5.8564   -9.9920   -5.9456 C   0  0  0  0  0  0  0  0  0  0  0  0
    5.6911  -10.9021   -4.7647 C   0  0  0  0  0  0  0  0  0  0  0  0
    5.6093  -12.3966   -4.6671 N   0  0  0  0  0  1  0  0  0  0  0  0
    5.7926  -11.6127   -6.0818 F   0  0  0  0  0  0  0  0  0  0  0  0
    5.5223  -11.4208   -3.3674 C   0  0  0  0  0  0  0  0  0  0  0  0
    5.3649  -11.5023   -1.8779 O   0  0  0  0  0  0  0  0  0  0  0  0
    5.2331  -11.1391   -0.4285 C   0  0  0  0  0  0  0  0  0  0  0  0
    5.1384  -10.3635    0.8520 C   0  0  0  0  0  0  0  0  0  0  0  0
    5.0893   -9.2446    1.8497 C   0  0  0  0  0  0  0  0  0  0  0  0
    4.9217  -10.0631    3.0955 O   0  0  0  0  0  0  0  0  0  0  0  0
    5.0901   -7.8816    2.4762 O   0  0  0  0  0  0  0  0  0  0  0  0
    5.1409   -6.3958    2.6756 C   0  0  0  0  0  0  0  0  0  0  0  0
    5.2370   -4.9191    2.4303 C   0  0  0  0  0  0  0  0  0  0  0  0
    5.3699   -3.5828    1.7621 C   0  0  0  0  0  0  0  0  0  0  0  0
    5.2860   -2.7137    2.9817 C   0  0  0  0  0  0  0  0  0  0  0  0
    5.5279   -2.5055    0.7304 C   0  0  0  0  0  0  0  0  0  0  0  0
    5.4911   -1.3153    1.6424 C   0  0  0  0  0  0  0  0  0  0  0  0
    4.7963   -0.7912    1.8072 C   0  0  0  0  0  0  0  0  0  0  0  0
    6.7247   -0.9056    2.3910 C   0  0  0  0  0  0  0  0  0  0  0  0
    7.7802   -1.9224    2.7108 C   0  0  0  0  0  0  0  0  0  0  0  0
    7.5792   -2.8798    3.8478 O   0  0  0  0  0  1  0  0  0  0  0  0
    9.0366   -1.9816    1.8935 O   0  0  0  0  0  0  0  0  0  0  0  0
   10.3255   -2.4110    2.5295 C   0  0  0  0  0  3  0  0  0  0  0  0
   11.4043   -3.0323    1.6928 C   0  0  0  0  0  3  0  0  0  0  0  0
   11.5511   -4.5243    1.6454 O   0  0  0  0  0  1  0  0  0  0  0  0
   12.3363   -2.1615    0.9035 C   0  0  0  0  0  0  0  0  0  0  0  0
   13.7903   -2.0970    1.2662 C   0  0  0  0  0  0  0  0  0  0  0  0
   14.7186   -1.2112    0.4892 C   0  0  0  0  0  0  0  0  0  0  0  0
   15.0710    0.1494    1.0132 O   0  0  0  0  0  0  0  0  0  0  0  0
   15.2944   -1.6860   -0.8120 C   0  0  0  0  0  0  0  0  0  0  0  0
   14.5297   -1.4886   -2.0872 C   0  0  0  0  0  3  0  0  0  0  0  0
   14.9729   -0.4501   -3.0745 C   0  0  0  0  0  0  0  0  0  0  0  0
   16.4208   -0.0683   -3.1623 O   0  0  0  0  0  1  0  0  0  0  0  0
   13.9682    0.2067   -3.9741 C   0  0  0  0  0  0  0  0  0  0  0  0
   12.5042    0.1051   -3.6638 C   0  0  0  0  0  0  0  0  0  0  0  0
   11.5331   -0.2711   -4.7434 C   0  0  0  0  0  0  0  0  0  0  0  0
   10.1015   -0.5564   -4.3983 C   0  0  0  0  0  0  0  0  0  0  0  0
    9.2662   -1.4082   -5.3075 C   0  0  0  0  0  0  0  0  0  0  0  0
    9.5051    0.0102   -3.1439 C   0  0  0  0  0  0  0  0  0  0  0  0
    8.6193    1.2185   -3.2140 C   0  0  0  0  0  3  0  0  0  0  0  0
    9.2232    2.5916   -3.2256 O   0  0  0  0  0  1  0  0  0  0  0  0
   16.6352   -2.3582   -0.8380 C   0  0  0  0  0  0  0  0  0  0  0  0
   17.0922   -3.0725   -2.0753 C   0  0  0  0  0  0  0  0  0  0  0  0
   16.9408   -2.4197   -3.4172 C   0  0  0  0  0  0  0  0  0  0  0  0
   17.9065   -2.7391   -4.5197 C   0  0  0  0  0  0  0  0  0  0  0  0
   17.9475   -1.8844   -5.7518 C   0  0  0  0  0  0  0  0  0  0  0  0
   18.1508   -2.5168   -7.0968 O   0  0  0  0  0  1  0  0  0  0  0  0
   17.7854   -0.3975   -5.6388 C   0  0  0  0  0  3  0  0  0  0  0  0
   18.8552    0.4261   -4.9853 C   0  0  0  0  0  0  0  0  0  0  0  0
   20.2883    0.2544   -5.3936 C   0  0  0  0  0  0  0  0  0  0  0  0
   20.6546    0.2174   -6.8478 C   0  0  0  0  0  0  0  0  0  0  0  0
   21.3552    0.1197   -4.3479 C   0  0  0  0  0  0  0  0  0  0  0  0
   20.9812    0.0759   -2.8960 C   0  0  0  0  0  0  0  0  0  0  0  0
   20.1951   -1.0831   -2.3586 C   0  0  0  0  0  0  0  0  0  0  0  0
   20.7371   -2.4767   -2.4774 C   0  0  0  0  0  0  0  0  0  0  0  0
   20.8968   -3.3264   -1.2517 C   0  0  0  0  0  0  0  0  0  0  0  0
   21.1195   -3.0205   -3.8220 C   0  0  0  0  0  0  0  0  0  0  0  0
   21.1640   -4.5029   -4.0464 C   0  0  0  0  0  0  0  0  0  0  0  0
   20.4502   -5.4260   -3.1038 C   0  0  0  0  0  0  0  0  0  0  0  0
   18.9759   -5.2709   -2.8749 C   0  0  0  0  0  3  0  0  0  0  0  0
   18.1152   -6.4841   -2.6819 O   0  0  0  0  0  0  0  0  0  0  0  0
   16.7709   -6.5627   -3.3427 C   0  0  0  0  0  0  0  0  0  0  0  0
   16.6593   -7.0348   -4.7621 C   0  0  0  0  0  0  0  0  0  0  0  0
   17.8986   -7.2720   -5.5732 C   0  0  0  0  0  3  0  0  0  0  0  0
   18.4620   -6.1707   -6.4215 C   0  0  0  0  0  0  0  0  0  0  0  0
   19.6638   -6.4267   -7.2818 C   0  0  0  0  0  0  0  0  0  0  0  0
   20.6114   -7.5368   -6.9355 O   0  0  0  0  0  1  0  0  0  0  0  0
   19.9181   -5.5727   -8.4884 O   0  0  0  0  0  0  0  0  0  0  0  0
   19.1224   -4.3191   -8.7014 C   0  0  0  0  0  0  0  0  0  0  0  0
  1  2  1  0
  2  3  1  0
  2  4  1  0
  4  5  1  0
  5  6  1  0
  6  7  1  0
  7  8  1  0
  7  9  1  0
  9 10  1  0
 10 11  1  0
 11 12  1  0
 12 13  1  0
 12 14  1  0
 14 15  1  0
 15 16  1  0
 16 17  1  0
 16 18  1  0
 16 19  1  0
 19 20  1  0
 20 21  1  0
 21 22  1  0
 22 23  1  0
 23 24  1  0
 23 25  1  0
 25 26  1  0
 26 27  1  0
 27 28  1  0
 28 29  1  0
 28 30  1  0
 30 31  1  0
 31 32  1  0
 31 33  1  0
 33 34  1  0
 34 35  1  0
 34 36  1  0
 36 37  1  0
 37 38  1  0
 38 39  1  0
 38 40  1  0
 40 41  1  0
 41 42  1  0
 42 43  1  0
 42 44  1  0
 44 45  1  0
 45 46  1  0
 46 47  1  0
 46 48  1  0
 48 49  1  0
 49 50  1  0
 50 51  1  0
 51 52  1  0
 51 53  1  0
 53 54  1  0
 54 55  1  0
 44 56  1  0
 56 57  1  0
 57 58  1  0
 58 59  1  0
 59 60  1  0
 60 61  1  0
 60 62  1  0
 62 63  1  0
 63 64  1  0
 64 65  1  0
 64 66  1  0
 66 67  1  0
 67 68  1  0
 68 69  1  0
 69 70  1  0
 69 71  1  0
 71 72  1  0
 72 73  1  0
 73 74  1  0
 74 75  1  0
 75 76  1  0
 76 77  1  0
 77 78  1  0
 78 79  1  0
 79 80  1  0
 80 81  1  0
 80 82  1  0
 82 83  1  0
 30  4  1  0
M  RAD  8   9   2  14   2  17   2  37   2  38   2  45   2  54   2  62   2
M  CHG  7  17   1  35  -1  39  -1  47  -1  55  -1  61  -1  81  -1
M  RAD  2  74   2  78   2
M  END
>  <docking_score>  (1) 
99.132000000000005

$$$$
