
     RDKit          3D

 30 31  0  0  0  0  0  0  0  0999 V2000
   17.2002   -2.2475   -8.5769 C   0  0  0  0  0  0  0  0  0  0  0  0
   18.5577   -2.8895   -8.4128 C   0  0  1  0  0  0  0  0  0  0  0  0
   19.7014   -1.9582   -8.7043 C   0  0  0  0  0  0  0  0  0  0  0  0
   20.7919   -2.1483   -7.6913 C   0  0  2  0  0  0  0  0  0  0  0  0
   21.1557   -3.4836   -7.7010 O   0  0  0  0  0  0  0  0  0  0  0  0
   20.2948   -1.6784   -6.3596 C   0  0  2  0  0  0  0  0  0  0  0  0
   21.1895   -1.8571   -5.3213 O   0  0  0  0  0  0  0  0  0  0  0  0
   18.9999   -2.3481   -6.0122 C   0  0  1  0  0  0  0  0  0  0  0  0
   17.9361   -1.4398   -6.0302 O   0  0  0  0  0  0  0  0  0  0  0  0
   18.7047   -3.4440   -7.0042 C   0  0  1  0  0  0  0  0  0  0  0  0
   17.5280   -4.1520   -6.5619 N   0  0  0  0  0  0  0  0  0  0  0  0
   17.7383   -5.5594   -6.4164 C   0  0  1  0  0  0  0  0  0  0  0  0
   19.0535   -6.0468   -6.9864 C   0  0  0  0  0  0  0  0  0  0  0  0
   19.1005   -7.5442   -6.7398 C   0  0  2  0  0  0  0  0  0  0  0  0
   20.2302   -8.0776   -7.3405 O   0  0  0  0  0  0  0  0  0  0  0  0
   17.8740   -8.1886   -7.3465 C   0  0  0  0  0  0  0  0  0  0  0  0
   17.9020   -8.1404   -8.7399 O   0  0  0  0  0  0  0  0  0  0  0  0
   19.1533   -7.7556   -5.2430 C   0  0  1  0  0  0  0  0  0  0  0  0
   20.2815   -8.4479   -4.8356 O   0  0  0  0  0  0  0  0  0  0  0  0
   19.0083   -6.4460   -4.4903 C   0  0  2  0  0  0  0  0  0  0  0  0
   18.8911   -6.7452   -3.1300 O   0  0  0  0  0  0  0  0  0  0  0  0
   17.6652   -5.8697   -4.9343 C   0  0  1  0  0  0  0  0  0  0  0  0
   17.3756   -4.7379   -4.1809 O   0  0  0  0  0  0  0  0  0  0  0  0
   16.3800   -5.0420   -3.3820 O   0  0  0  0  0  0  0  0  0  0  0  0
   16.6308   -4.8048   -2.1291 O   0  0  0  0  0  0  0  0  0  0  0  0
   17.0214   -3.4886   -1.9049 C   0  0  0  0  0  0  0  0  0  0  0  0
   15.9712   -2.6451   -2.2286 O   0  0  0  0  0  0  0  0  0  0  0  0
   16.2967   -1.7797   -3.1645 O   0  0  0  0  0  0  0  0  0  0  0  0
   15.2208   -1.4593   -3.8436 O   0  0  0  0  0  0  0  0  0  0  0  0
   14.8243   -2.4851   -4.5616 O   0  0  0  0  0  0  0  0  0  0  0  0
  2  1  1  1
  2  3  1  0
  3  4  1  0
  4  5  1  1
  4  6  1  0
  6  7  1  1
  6  8  1  0
  8  9  1  6
  8 10  1  0
 10 11  1  1
 12 11  1  1
 12 13  1  0
 13 14  1  0
 14 15  1  6
 14 16  1  0
 16 17  1  0
 14 18  1  0
 18 19  1  6
 18 20  1  0
 20 21  1  1
 20 22  1  0
 22 23  1  1
 23 24  1  0
 24 25  1  0
 25 26  1  0
 26 27  1  0
 27 28  1  0
 28 29  1  0
 29 30  1  0
 10  2  1  0
 22 12  1  0
M  END
>  <docking_score>  (1) 
-3.6539999999999999

$$$$

     RDKit          3D

 30 31  0  0  0  0  0  0  0  0999 V2000
   17.4051   -3.2354   -1.3210 C   0  0  0  0  0  0  0  0  0  0  0  0
   18.6482   -3.0664   -2.1624 C   0  0  1  0  0  0  0  0  0  0  0  0
   19.8795   -3.6652   -1.5414 C   0  0  0  0  0  0  0  0  0  0  0  0
   20.6914   -4.3730   -2.5860 C   0  0  2  0  0  0  0  0  0  0  0  0
   20.9708   -3.4683   -3.5953 O   0  0  0  0  0  0  0  0  0  0  0  0
   19.9254   -5.5699   -3.0572 C   0  0  2  0  0  0  0  0  0  0  0  0
   20.5420   -6.2789   -4.0710 O   0  0  0  0  0  0  0  0  0  0  0  0
   18.5492   -5.1760   -3.5009 C   0  0  1  0  0  0  0  0  0  0  0  0
   17.5724   -5.6717   -2.6308 O   0  0  0  0  0  0  0  0  0  0  0  0
   18.4312   -3.6737   -3.5399 C   0  0  1  0  0  0  0  0  0  0  0  0
   17.1456   -3.3335   -4.0992 N   0  0  0  0  0  0  0  0  0  0  0  0
   16.8064   -4.1143   -5.2487 C   0  0  1  0  0  0  0  0  0  0  0  0
   15.3768   -4.6130   -5.2533 C   0  0  0  0  0  0  0  0  0  0  0  0
   15.2031   -5.4086   -6.5348 C   0  0  2  0  0  0  0  0  0  0  0  0
   13.9464   -5.9936   -6.5503 O   0  0  0  0  0  0  0  0  0  0  0  0
   16.2503   -6.4985   -6.5913 C   0  0  0  0  0  0  0  0  0  0  0  0
   16.8462   -6.5764   -7.8497 O   0  0  0  0  0  0  0  0  0  0  0  0
   15.3464   -4.4434   -7.6905 C   0  0  1  0  0  0  0  0  0  0  0  0
   14.2209   -4.3959   -8.4961 O   0  0  0  0  0  0  0  0  0  0  0  0
   15.7416   -3.0583   -7.2133 C   0  0  2  0  0  0  0  0  0  0  0  0
   16.0226   -2.2814   -8.3409 O   0  0  0  0  0  0  0  0  0  0  0  0
   17.0605   -3.2477   -6.4664 C   0  0  1  0  0  0  0  0  0  0  0  0
   17.5786   -2.0052   -6.1199 O   0  0  0  0  0  0  0  0  0  0  0  0
   18.8597   -2.0208   -6.4040 O   0  0  0  0  0  0  0  0  0  0  0  0
   19.3435   -0.8459   -6.6768 O   0  0  0  0  0  0  0  0  0  0  0  0
   20.4448   -0.5281   -5.8886 C   0  0  0  0  0  0  0  0  0  0  0  0
   20.0240   -0.3327   -4.5833 O   0  0  0  0  0  0  0  0  0  0  0  0
   21.0302   -0.2800   -3.7374 O   0  0  0  0  0  0  0  0  0  0  0  0
   20.5633   -0.0638   -2.5305 O   0  0  0  0  0  0  0  0  0  0  0  0
   21.0567    1.0566   -2.0550 O   0  0  0  0  0  0  0  0  0  0  0  0
  2  1  1  1
  2  3  1  0
  3  4  1  0
  4  5  1  6
  4  6  1  0
  6  7  1  6
  6  8  1  0
  8  9  1  1
  8 10  1  0
 10 11  1  1
 12 11  1  1
 12 13  1  0
 13 14  1  0
 14 15  1  1
 14 16  1  0
 16 17  1  0
 14 18  1  0
 18 19  1  1
 18 20  1  0
 20 21  1  6
 20 22  1  0
 22 23  1  1
 23 24  1  0
 24 25  1  0
 25 26  1  0
 26 27  1  0
 27 28  1  0
 28 29  1  0
 29 30  1  0
 10  2  1  0
 22 12  1  0
M  END
>  <docking_score>  (2) 
-3.5760000000000001

$$$$

     RDKit          3D

 30 31  0  0  0  0  0  0  0  0999 V2000
   14.5571   -3.6208   -5.2744 C   0  0  0  0  0  0  0  0  0  0  0  0
   15.2865   -4.1515   -6.4861 C   0  0  1  0  0  0  0  0  0  0  0  0
   15.0627   -3.3335   -7.7275 C   0  0  0  0  0  0  0  0  0  0  0  0
   16.3511   -3.1764   -8.4804 C   0  0  2  0  0  0  0  0  0  0  0  0
   16.8511   -4.4406   -8.7395 O   0  0  0  0  0  0  0  0  0  0  0  0
   17.2786   -2.3262   -7.6691 C   0  0  2  0  0  0  0  0  0  0  0  0
   18.5310   -2.1545   -8.2282 O   0  0  0  0  0  0  0  0  0  0  0  0
   17.4308   -2.8814   -6.2855 C   0  0  1  0  0  0  0  0  0  0  0  0
   16.8367   -2.0462   -5.3334 O   0  0  0  0  0  0  0  0  0  0  0  0
   16.7778   -4.2374   -6.2002 C   0  0  1  0  0  0  0  0  0  0  0  0
   17.0616   -4.7972   -4.9011 N   0  0  0  0  0  0  0  0  0  0  0  0
   17.5450   -6.1421   -4.9601 C   0  0  1  0  0  0  0  0  0  0  0  0
   17.7236   -6.6701   -6.3678 C   0  0  0  0  0  0  0  0  0  0  0  0
   18.2395   -8.0917   -6.2316 C   0  0  2  0  0  0  0  0  0  0  0  0
   18.3170   -8.6786   -7.4851 O   0  0  0  0  0  0  0  0  0  0  0  0
   17.2813   -8.8905   -5.3764 C   0  0  0  0  0  0  0  0  0  0  0  0
   17.0115  -10.1400   -5.9338 O   0  0  0  0  0  0  0  0  0  0  0  0
   19.6126   -8.0171   -5.6017 C   0  0  1  0  0  0  0  0  0  0  0  0
   20.6016   -8.5716   -6.3970 O   0  0  0  0  0  0  0  0  0  0  0  0
   19.9628   -6.5975   -5.1961 C   0  0  2  0  0  0  0  0  0  0  0  0
   21.1570   -6.6419   -4.4711 O   0  0  0  0  0  0  0  0  0  0  0  0
   18.8675   -6.1728   -4.2197 C   0  0  1  0  0  0  0  0  0  0  0  0
   19.1869   -4.9338   -3.6765 O   0  0  0  0  0  0  0  0  0  0  0  0
   18.6243   -4.8671   -2.4928 O   0  0  0  0  0  0  0  0  0  0  0  0
   18.4448   -3.6504   -2.0730 O   0  0  0  0  0  0  0  0  0  0  0  0
   17.1081   -3.3711   -1.8077 C   0  0  0  0  0  0  0  0  0  0  0  0
   16.8603   -2.0386   -2.0944 O   0  0  0  0  0  0  0  0  0  0  0  0
   15.7511   -1.6059   -1.5346 O   0  0  0  0  0  0  0  0  0  0  0  0
   15.2972   -0.5831   -2.2196 O   0  0  0  0  0  0  0  0  0  0  0  0
   14.6307   -1.0087   -3.2682 O   0  0  0  0  0  0  0  0  0  0  0  0
  2  1  1  1
  2  3  1  0
  3  4  1  0
  4  5  1  1
  4  6  1  0
  6  7  1  6
  6  8  1  0
  8  9  1  1
  8 10  1  0
 10 11  1  1
 12 11  1  6
 12 13  1  0
 13 14  1  0
 14 15  1  6
 14 16  1  0
 16 17  1  0
 14 18  1  0
 18 19  1  6
 18 20  1  0
 20 21  1  1
 20 22  1  0
 22 23  1  6
 23 24  1  0
 24 25  1  0
 25 26  1  0
 26 27  1  0
 27 28  1  0
 28 29  1  0
 29 30  1  0
 10  2  1  0
 22 12  1  0
M  END
>  <docking_score>  (3) 
-3.5379999999999998

$$$$
