
     RDKit          3D

 44 50  0  0  0  0  0  0  0  0999 V2000
   15.4542   -1.9972   -5.5438 C   0  0  1  0  0  0  0  0  0  0  0  0
   15.6905   -3.1409   -6.4896 C   0  0  2  0  0  0  0  0  0  0  0  0
   15.1727   -2.8199   -7.9015 C   0  0  0  0  0  0  0  0  0  0  0  0
   14.8780   -4.3766   -6.0746 C   0  0  0  0  0  0  0  0  0  0  0  0
   15.7151   -5.5803   -5.8350 C   0  0  0  0  0  0  0  0  0  0  0  0
   16.4269   -6.1261   -7.0285 C   0  0  0  0  0  0  0  0  0  0  0  0
   17.4183   -7.1646   -6.5396 C   0  0  1  0  0  0  0  0  0  0  0  0
   18.5556   -7.3774   -7.4868 C   0  0  0  0  0  0  0  0  0  0  0  0
   17.9780   -6.7751   -5.1754 C   0  0  2  0  0  0  0  0  0  0  0  0
   17.1060   -7.4501   -4.1353 C   0  0  0  0  0  2  0  0  0  0  0  0
   17.9466   -5.2845   -5.0637 C   0  0  0  0  0  0  0  0  0  0  0  0
   18.2840   -4.8130   -3.6792 C   0  0  1  0  0  0  0  0  0  0  0  0
   19.2993   -5.7213   -3.0864 C   0  0  0  0  0  0  0  0  0  0  0  0
   20.5745   -5.1649   -3.7198 C   0  0  0  0  0  0  0  0  0  0  0  0
   20.3437   -3.7082   -3.5005 C   0  0  1  0  0  0  0  0  0  0  0  0
   21.3818   -2.8476   -4.0063 C   0  0  0  0  0  0  0  0  0  0  0  0
   21.0837   -1.4450   -4.3312 C   0  0  0  0  0  0  0  0  0  0  0  0
   20.2863   -1.3627   -5.6113 C   0  0  2  0  0  0  0  0  0  0  0  0
   20.9582   -0.7739   -6.6486 O   0  0  0  0  0  0  0  0  0  0  0  0
   19.0118   -0.6024   -5.2369 C   0  0  0  0  0  0  0  0  0  0  0  0
   19.8394   -2.7919   -5.9565 C   0  0  0  0  0  0  0  0  0  0  0  0
   18.8952   -3.3887   -3.7011 C   0  0  1  0  0  0  0  0  0  0  0  0
   18.6310   -2.8705   -5.0016 C   0  0  1  0  0  0  0  0  0  0  0  0
   17.9417   -1.6939   -5.4244 C   0  0  2  0  0  0  0  0  0  0  0  0
   17.8729   -1.7647   -6.9761 C   0  0  0  0  0  0  0  0  0  0  0  0
   19.0680   -2.6007   -7.3828 C   0  0  0  0  0  0  0  0  0  0  0  0
   18.9087   -3.2149   -8.7360 C   0  0  0  0  0  0  0  0  0  0  0  0
   17.6252   -4.0318   -8.7348 C   0  0  0  0  0  2  0  0  0  0  0  0
   16.6130   -1.3381   -4.9778 C   0  0  1  0  0  0  0  0  0  0  0  0
   15.6477   -0.5938   -5.9201 C   0  0  2  0  0  0  0  0  0  0  0  0
   14.6142    0.2839   -5.2670 C   0  0  0  0  0  0  0  0  0  0  0  0
   14.7168    0.1184   -3.7632 C   0  0  0  0  0  3  0  0  0  0  0  0
   14.3091   -1.2770   -3.4245 C   0  0  1  0  0  0  0  0  0  0  0  0
   14.3345   -2.2342   -4.5605 C   0  0  0  0  0  0  0  0  0  0  0  0
   14.8690   -1.7646   -2.2536 O   0  0  0  0  0  0  0  0  0  0  0  0
   16.2206   -1.5696   -2.1472 C   0  0  0  0  0  0  0  0  0  0  0  0
   16.9448   -2.9276   -2.1200 C   0  0  2  0  0  0  0  0  0  0  0  0
   16.2167   -3.9748   -2.8908 C   0  0  0  0  0  0  0  0  0  0  0  0
   16.7495   -3.3467   -0.6439 C   0  0  0  0  0  0  0  0  0  0  0  0
   16.0777   -4.7210   -0.6062 C   0  0  0  0  0  2  0  0  0  0  0  0
   18.3957   -2.7462   -2.4643 C   0  0  2  0  0  0  0  0  0  0  0  0
   18.6919   -1.2372   -2.4431 C   0  0  0  0  0  0  0  0  0  0  0  0
   19.1560   -3.2926   -1.2732 C   0  0  0  0  0  0  0  0  0  0  0  0
   20.1835   -2.4199   -0.6876 C   0  0  0  0  0  0  0  0  0  0  0  0
  1  2  1  0
  2  3  1  6
  2  4  1  0
  4  5  1  0
  5  6  1  0
  6  7  1  0
  7  8  1  6
  7  9  1  0
  9 10  1  1
  9 11  1  0
 12 11  1  6
 12 13  1  0
 13 14  1  0
 15 14  1  6
 15 16  1  0
 16 17  1  0
 17 18  1  0
 18 19  1  6
 18 20  1  0
 18 21  1  0
 22 15  1  1
 22 23  1  0
 23 24  1  0
 24 25  1  6
 25 26  1  0
 26 27  1  0
 27 28  1  0
 24 29  1  0
 29 30  1  6
 30 31  1  1
 31 32  1  0
 33 32  1  6
 33 34  1  0
 33 35  1  0
 35 36  1  0
 36 37  1  0
 37 38  1  6
 37 39  1  0
 39 40  1  0
 37 41  1  0
 41 42  1  6
 41 43  1  0
 43 44  1  0
 29  1  1  0
 30  1  1  0
  1 34  1  1
 22 12  1  0
 24 20  1  0
 23 21  1  1
 41 22  1  0
M  RAD  4  10   3  28   3  32   2  40   3
M  END
>  <docking_score>  (1) 
-4.2320000000000002

$$$$

     RDKit          3D

 44 50  0  0  0  0  0  0  0  0999 V2000
   19.4661   -3.8183   -7.4464 C   0  0  1  0  0  0  0  0  0  0  0  0
   19.5774   -5.3092   -7.2941 C   0  0  2  0  0  0  0  0  0  0  0  0
   20.8794   -5.8428   -7.9144 C   0  0  0  0  0  0  0  0  0  0  0  0
   18.4744   -6.0283   -8.0852 C   0  0  0  0  0  0  0  0  0  0  0  0
   17.6242   -6.9099   -7.2443 C   0  0  0  0  0  0  0  0  0  0  0  0
   18.3117   -8.0845   -6.6308 C   0  0  0  0  0  0  0  0  0  0  0  0
   17.3647   -8.6951   -5.6155 C   0  0  1  0  0  0  0  0  0  0  0  0
   18.0710   -9.4785   -4.5556 C   0  0  0  0  0  0  0  0  0  0  0  0
   16.5185   -7.6147   -4.9500 C   0  0  2  0  0  0  0  0  0  0  0  0
   15.2334   -7.5119   -5.7472 C   0  0  0  0  0  2  0  0  0  0  0  0
   17.2967   -6.3381   -4.9579 C   0  0  0  0  0  0  0  0  0  0  0  0
   16.4697   -5.1678   -4.5116 C   0  0  1  0  0  0  0  0  0  0  0  0
   15.5158   -5.6135   -3.4634 C   0  0  0  0  0  0  0  0  0  0  0  0
   16.4248   -5.5972   -2.2345 C   0  0  0  0  0  0  0  0  0  0  0  0
   17.0850   -4.2751   -2.4333 C   0  0  1  0  0  0  0  0  0  0  0  0
   18.0551   -3.9251   -1.4280 C   0  0  0  0  0  0  0  0  0  0  0  0
   19.1207   -2.9600   -1.7359 C   0  0  0  0  0  0  0  0  0  0  0  0
   20.1609   -3.5960   -2.6274 C   0  0  2  0  0  0  0  0  0  0  0  0
   21.3823   -3.7567   -2.0302 O   0  0  0  0  0  0  0  0  0  0  0  0
   20.2306   -2.6942   -3.8620 C   0  0  0  0  0  0  0  0  0  0  0  0
   19.5810   -4.9334   -3.1134 C   0  0  0  0  0  0  0  0  0  0  0  0
   17.3533   -4.0564   -3.8896 C   0  0  1  0  0  0  0  0  0  0  0  0
   18.6943   -4.3784   -4.2466 C   0  0  1  0  0  0  0  0  0  0  0  0
   19.6853   -3.6332   -4.9542 C   0  0  2  0  0  0  0  0  0  0  0  0
   20.8968   -4.5896   -5.1413 C   0  0  0  0  0  0  0  0  0  0  0  0
   20.3209   -5.9827   -4.9994 C   0  0  0  0  0  0  0  0  0  0  0  0
   21.3698   -7.0468   -5.0333 C   0  0  0  0  0  0  0  0  0  0  0  0
   21.2959   -7.8233   -3.7270 C   0  0  0  0  0  2  0  0  0  0  0  0
   19.4573   -3.0149   -6.2415 C   0  0  1  0  0  0  0  0  0  0  0  0
   20.6012   -2.9082   -7.2681 C   0  0  2  0  0  0  0  0  0  0  0  0
   20.5272   -1.7617   -8.2401 C   0  0  0  0  0  0  0  0  0  0  0  0
   19.2184   -1.0266   -8.0253 C   0  0  0  0  0  3  0  0  0  0  0  0
   18.1065   -1.9409   -8.4201 C   0  0  1  0  0  0  0  0  0  0  0  0
   18.4689   -3.3800   -8.4906 C   0  0  0  0  0  0  0  0  0  0  0  0
   16.9047   -1.6850   -7.7779 O   0  0  0  0  0  0  0  0  0  0  0  0
   17.0078   -1.5357   -6.4202 C   0  0  0  0  0  0  0  0  0  0  0  0
   16.2332   -2.6602   -5.7096 C   0  0  2  0  0  0  0  0  0  0  0  0
   16.2053   -3.9203   -6.5046 C   0  0  0  0  0  0  0  0  0  0  0  0
   14.7821   -2.1315   -5.7966 C   0  0  0  0  0  0  0  0  0  0  0  0
   14.8065   -0.7183   -6.3825 C   0  0  0  0  0  2  0  0  0  0  0  0
   16.6989   -2.7892   -4.2873 C   0  0  2  0  0  0  0  0  0  0  0  0
   17.5795   -1.5676   -3.9752 C   0  0  0  0  0  0  0  0  0  0  0  0
   15.4577   -2.5799   -3.4443 C   0  0  0  0  0  0  0  0  0  0  0  0
   15.0890   -1.1891   -3.1440 C   0  0  0  0  0  0  0  0  0  0  0  0
  1  2  1  0
  2  3  1  6
  2  4  1  0
  4  5  1  0
  5  6  1  0
  6  7  1  0
  7  8  1  1
  7  9  1  0
  9 10  1  6
  9 11  1  0
 12 11  1  1
 12 13  1  0
 13 14  1  0
 15 14  1  6
 15 16  1  0
 16 17  1  0
 17 18  1  0
 18 19  1  1
 18 20  1  0
 18 21  1  0
 22 15  1  1
 22 23  1  0
 23 24  1  0
 24 25  1  6
 25 26  1  0
 26 27  1  0
 27 28  1  0
 24 29  1  0
 29 30  1  6
 30 31  1  6
 31 32  1  0
 33 32  1  1
 33 34  1  0
 33 35  1  0
 35 36  1  0
 36 37  1  0
 37 38  1  6
 37 39  1  0
 39 40  1  0
 37 41  1  0
 41 42  1  1
 41 43  1  0
 43 44  1  0
 29  1  1  0
 30  1  1  0
  1 34  1  6
 22 12  1  0
 24 20  1  0
 23 21  1  1
 41 22  1  0
M  RAD  4  10   3  28   3  32   2  40   3
M  END
>  <docking_score>  (2) 
-3.7829999999999999

$$$$

     RDKit          3D

 44 50  0  0  0  0  0  0  0  0999 V2000
   18.6802   -3.0284   -2.4581 C   0  0  1  0  0  0  0  0  0  0  0  0
   17.8174   -4.2528   -2.3360 C   0  0  2  0  0  0  0  0  0  0  0  0
   17.3562   -4.4739   -0.8858 C   0  0  0  0  0  0  0  0  0  0  0  0
   18.6146   -5.5241   -2.6637 C   0  0  0  0  0  0  0  0  0  0  0  0
   18.0261   -6.3208   -3.7710 C   0  0  0  0  0  0  0  0  0  0  0  0
   16.6844   -6.9176   -3.5017 C   0  0  0  0  0  0  0  0  0  0  0  0
   16.1453   -7.4524   -4.8146 C   0  0  1  0  0  0  0  0  0  0  0  0
   14.6535   -7.5533   -4.8354 C   0  0  0  0  0  0  0  0  0  0  0  0
   16.5975   -6.5777   -5.9793 C   0  0  2  0  0  0  0  0  0  0  0  0
   17.8754   -7.1906   -6.5170 C   0  0  0  0  0  2  0  0  0  0  0  0
   16.8040   -5.1875   -5.4692 C   0  0  0  0  0  0  0  0  0  0  0  0
   17.4472   -4.2982   -6.4930 C   0  0  1  0  0  0  0  0  0  0  0  0
   16.9647   -4.6796   -7.8454 C   0  0  0  0  0  0  0  0  0  0  0  0
   15.6209   -3.9515   -7.8773 C   0  0  0  0  0  0  0  0  0  0  0  0
   16.0468   -2.6241   -7.3481 C   0  0  1  0  0  0  0  0  0  0  0  0
   14.9896   -1.6539   -7.2241 C   0  0  0  0  0  0  0  0  0  0  0  0
   15.1219   -0.5360   -6.2783 C   0  0  0  0  0  0  0  0  0  0  0  0
   14.9422   -1.0260   -4.8610 C   0  0  2  0  0  0  0  0  0  0  0  0
   13.8145   -0.5511   -4.2468 O   0  0  0  0  0  0  0  0  0  0  0  0
   16.2216   -0.6095   -4.1316 C   0  0  0  0  0  0  0  0  0  0  0  0
   14.9642   -2.5618   -4.9088 C   0  0  0  0  0  0  0  0  0  0  0  0
   17.0670   -2.8123   -6.2690 C   0  0  1  0  0  0  0  0  0  0  0  0
   16.4941   -2.7481   -4.9662 C   0  0  1  0  0  0  0  0  0  0  0  0
   16.8509   -1.9795   -3.8173 C   0  0  2  0  0  0  0  0  0  0  0  0
   15.9246   -2.4634   -2.6661 C   0  0  0  0  0  0  0  0  0  0  0  0
   15.7334   -1.2495   -1.7815 C   0  0  0  0  0  0  0  0  0  0  0  0
   15.8044   -1.5797   -0.3256 C   0  0  0  0  0  0  0  0  0  0  0  0
   14.7369   -0.7691    0.3942 C   0  0  0  0  0  2  0  0  0  0  0  0
   18.1874   -1.9325   -3.2667 C   0  0  1  0  0  0  0  0  0  0  0  0
   18.3995   -1.7768   -1.7486 C   0  0  2  0  0  0  0  0  0  0  0  0
   19.6760   -1.1092   -1.3134 C   0  0  0  0  0  0  0  0  0  0  0  0
   20.5282   -0.8448   -2.5393 C   0  0  0  0  0  3  0  0  0  0  0  0
   20.9520   -2.1623   -3.0985 C   0  0  1  0  0  0  0  0  0  0  0  0
   20.1472   -3.3267   -2.6470 C   0  0  0  0  0  0  0  0  0  0  0  0
   21.2169   -2.1438   -4.4593 O   0  0  0  0  0  0  0  0  0  0  0  0
   20.2512   -1.5354   -5.2167 C   0  0  0  0  0  0  0  0  0  0  0  0
   19.6052   -2.5621   -6.1644 C   0  0  2  0  0  0  0  0  0  0  0  0
   19.6067   -3.9394   -5.5954 C   0  0  0  0  0  0  0  0  0  0  0  0
   20.6519   -2.6266   -7.3015 C   0  0  0  0  0  0  0  0  0  0  0  0
   21.3825   -3.9688   -7.2237 C   0  0  0  0  0  2  0  0  0  0  0  0
   18.2787   -2.0524   -6.6513 C   0  0  2  0  0  0  0  0  0  0  0  0
   18.1759   -0.5711   -6.2506 C   0  0  0  0  0  0  0  0  0  0  0  0
   18.3965   -2.0232   -8.1615 C   0  0  0  0  0  0  0  0  0  0  0  0
   19.6260   -2.5837   -8.7399 C   0  0  0  0  0  0  0  0  0  0  0  0
  1  2  1  0
  2  3  1  1
  2  4  1  0
  4  5  1  0
  5  6  1  0
  6  7  1  0
  7  8  1  1
  7  9  1  0
  9 10  1  1
  9 11  1  0
 12 11  1  1
 12 13  1  0
 13 14  1  0
 15 14  1  1
 15 16  1  0
 16 17  1  0
 17 18  1  0
 18 19  1  1
 18 20  1  0
 18 21  1  0
 22 15  1  6
 22 23  1  0
 23 24  1  0
 24 25  1  1
 25 26  1  0
 26 27  1  0
 27 28  1  0
 24 29  1  0
 29 30  1  1
 30 31  1  6
 31 32  1  0
 33 32  1  6
 33 34  1  0
 33 35  1  0
 35 36  1  0
 36 37  1  0
 37 38  1  1
 37 39  1  0
 39 40  1  0
 37 41  1  0
 41 42  1  1
 41 43  1  0
 43 44  1  0
 29  1  1  0
 30  1  1  0
  1 34  1  6
 22 12  1  0
 24 20  1  0
 23 21  1  6
 41 22  1  0
M  RAD  4  10   3  28   3  32   2  40   3
M  END
>  <docking_score>  (3) 
-2.419

$$$$
