
     RDKit          3D

 15 17  0  0  0  0  0  0  0  0999 V2000
   17.1441   -4.9548   -4.8471 C   0  0  0  0  0  0  0  0  0  0  0  0
   18.2382   -4.7806   -3.8058 C   0  0  2  0  0  0  0  0  0  0  0  0
   18.6528   -6.0619   -3.1696 C   0  0  0  0  0  0  0  0  0  0  0  0
   17.6628   -3.7913   -2.7585 C   0  0  2  0  0  0  0  0  0  0  0  0
   16.2083   -4.3903   -2.8307 C   0  0  0  0  0  0  0  0  0  0  0  0
   16.0983   -4.0386   -4.3043 C   0  0  2  0  0  0  0  0  0  0  0  0
   14.8946   -3.7776   -4.9657 C   0  0  2  0  0  0  0  0  0  0  0  0
   14.8670   -4.2764   -6.2764 O   0  0  0  0  0  0  0  0  0  0  0  0
   14.5475   -2.3121   -5.0546 C   0  0  2  0  0  0  0  0  0  0  0  0
   15.3142   -1.5548   -6.1601 C   0  0  0  0  0  0  0  0  0  0  0  0
   16.5252   -1.1368   -5.4326 O   0  0  0  0  0  0  0  0  0  0  0  0
   15.1809   -1.5965   -3.8486 C   0  0  0  0  0  0  0  0  0  0  0  0
   16.4769   -1.7908   -4.2168 C   0  0  0  0  0  0  0  0  0  0  0  0
   17.5335   -2.4900   -3.5514 C   0  0  0  0  0  0  0  0  0  0  0  0
   18.6035   -1.8857   -3.6504 O   0  0  0  0  0  0  0  0  0  0  0  0
  1  2  1  0
  2  3  1  1
  2  4  1  0
  4  5  1  0
  5  6  1  0
  6  7  1  0
  7  8  1  6
  7  9  1  0
  9 10  1  6
 10 11  1  0
  9 12  1  0
 12 13  2  0
 13 14  1  0
 14 15  2  0
  6  1  1  6
  4 14  1  6
 13 11  1  0
M  END
>  <docking_score>  (1) 
-4.7320000000000002

$$$$

     RDKit          3D

 15 17  0  0  0  0  0  0  0  0999 V2000
   17.9815   -4.4734   -4.9385 C   0  0  0  0  0  0  0  0  0  0  0  0
   17.9344   -4.7618   -3.4465 C   0  0  2  0  0  0  0  0  0  0  0  0
   18.5510   -6.0675   -3.0810 C   0  0  0  0  0  0  0  0  0  0  0  0
   16.4323   -4.7202   -3.0612 C   0  0  2  0  0  0  0  0  0  0  0  0
   15.9586   -5.4083   -4.3961 C   0  0  0  0  0  0  0  0  0  0  0  0
   16.5308   -4.2723   -5.2264 C   0  0  2  0  0  0  0  0  0  0  0  0
   16.0476   -3.8912   -6.4817 C   0  0  2  0  0  0  0  0  0  0  0  0
   17.0629   -3.5016   -7.3676 O   0  0  0  0  0  0  0  0  0  0  0  0
   15.0538   -2.7568   -6.4391 C   0  0  2  0  0  0  0  0  0  0  0  0
   15.7013   -1.3655   -6.2705 C   0  0  0  0  0  0  0  0  0  0  0  0
   15.7622   -1.2547   -4.8027 O   0  0  0  0  0  0  0  0  0  0  0  0
   14.3312   -2.8046   -5.0814 C   0  0  0  0  0  0  0  0  0  0  0  0
   15.4165   -2.5013   -4.3179 C   0  0  0  0  0  0  0  0  0  0  0  0
   16.0617   -3.2535   -3.2855 C   0  0  0  0  0  0  0  0  0  0  0  0
   16.4030   -2.5286   -2.3485 O   0  0  0  0  0  0  0  0  0  0  0  0
  1  2  1  0
  2  3  1  6
  2  4  1  0
  4  5  1  0
  5  6  1  0
  6  7  1  0
  7  8  1  6
  7  9  1  0
  9 10  1  1
 10 11  1  0
  9 12  1  0
 12 13  2  0
 13 14  1  0
 14 15  2  0
  6  1  1  6
  4 14  1  6
 13 11  1  0
M  END
>  <docking_score>  (2) 
-4.6680000000000001

$$$$

     RDKit          3D

 15 17  0  0  0  0  0  0  0  0999 V2000
   19.0891   -2.8258   -3.4883 C   0  0  0  0  0  0  0  0  0  0  0  0
   18.7852   -2.7532   -2.0004 C   0  0  2  0  0  0  0  0  0  0  0  0
   19.8146   -3.4226   -1.1573 C   0  0  0  0  0  0  0  0  0  0  0  0
   17.3944   -3.4181   -1.8262 C   0  0  2  0  0  0  0  0  0  0  0  0
   17.6700   -4.5309   -2.9058 C   0  0  0  0  0  0  0  0  0  0  0  0
   17.8474   -3.4836   -3.9916 C   0  0  2  0  0  0  0  0  0  0  0  0
   17.5974   -3.7042   -5.3493 C   0  0  2  0  0  0  0  0  0  0  0  0
   18.5104   -3.0514   -6.1906 O   0  0  0  0  0  0  0  0  0  0  0  0
   16.2201   -3.2815   -5.7971 C   0  0  2  0  0  0  0  0  0  0  0  0
   16.0760   -1.7608   -6.0219 C   0  0  0  0  0  0  0  0  0  0  0  0
   15.6843   -1.3089   -4.6755 O   0  0  0  0  0  0  0  0  0  0  0  0
   15.2697   -3.3943   -4.5922 C   0  0  0  0  0  0  0  0  0  0  0  0
   15.8417   -2.4061   -3.8511 C   0  0  0  0  0  0  0  0  0  0  0  0
   16.4603   -2.4560   -2.5615 C   0  0  0  0  0  0  0  0  0  0  0  0
   16.1620   -1.4713   -1.8824 O   0  0  0  0  0  0  0  0  0  0  0  0
  1  2  1  0
  2  3  1  1
  2  4  1  0
  4  5  1  0
  5  6  1  0
  6  7  1  0
  7  8  1  6
  7  9  1  0
  9 10  1  1
 10 11  1  0
  9 12  1  0
 12 13  2  0
 13 14  1  0
 14 15  2  0
  6  1  1  6
  4 14  1  6
 13 11  1  0
M  END
>  <docking_score>  (3) 
-4.6680000000000001

$$$$
