
     RDKit          3D

 29 31  0  0  0  0  0  0  0  0999 V2000
   17.1480   -2.3084   -8.7378 C   0  0  0  0  0  0  0  0  0  0  0  0
   17.8268   -2.1732   -7.4077 C   0  0  0  0  0  0  0  0  0  0  0  0
   19.2557   -1.7381   -7.4972 C   0  0  0  0  0  0  0  0  0  0  0  0
   17.0254   -1.3373   -6.4313 C   0  0  0  0  0  0  0  0  0  0  0  0
   15.5526   -1.6817   -6.6639 C   0  0  0  0  0  0  0  0  0  0  0  0
   14.9749   -2.1194   -5.3564 C   0  0  0  0  0  0  0  0  0  0  0  0
   14.7279   -3.6038   -5.2881 C   0  0  1  0  0  0  0  0  0  0  0  0
   14.2600   -4.1678   -6.5994 C   0  0  0  0  0  0  0  0  0  0  0  0
   15.9453   -4.2976   -4.7400 C   0  0  1  0  0  0  0  0  0  0  0  0
   16.0357   -4.2525   -3.2504 C   0  0  0  0  0  0  0  0  0  0  0  0
   16.5231   -2.8688   -2.8289 C   0  0  0  0  0  0  0  0  0  0  0  0
   17.9765   -2.8479   -2.4948 C   0  0  1  0  0  0  0  0  0  0  0  0
   18.4368   -3.9917   -1.6613 C   0  0  0  0  0  0  0  0  0  0  0  0
   18.8702   -2.5223   -3.6508 C   0  0  0  0  0  3  0  0  0  0  0  0
   19.3649   -3.7085   -4.4038 C   0  0  0  0  0  0  0  0  0  0  0  0
   20.0350   -4.7437   -3.5442 C   0  0  2  0  0  0  0  0  0  0  0  0
   21.3808   -4.2866   -3.0221 C   0  0  0  0  0  0  0  0  0  0  0  0
   20.2007   -6.0043   -4.3992 C   0  0  0  0  0  0  0  0  0  0  0  0
   19.5860   -7.1671   -3.6555 C   0  0  0  0  0  0  0  0  0  0  0  0
   18.9194   -8.1546   -4.5698 C   0  0  2  0  0  0  0  0  0  0  0  0
   19.6803   -8.5072   -5.6554 O   0  0  0  0  0  0  0  0  0  0  0  0
   17.5128   -7.7510   -4.9299 C   0  0  1  0  0  0  0  0  0  0  0  0
   17.2073   -6.3371   -4.4112 C   0  0  0  0  0  0  0  0  0  0  0  0
   16.1618   -5.6665   -5.3129 C   0  0  1  0  0  0  0  0  0  0  0  0
   15.0057   -6.4071   -5.2968 O   0  0  0  0  0  0  0  0  0  0  0  0
   16.7156   -5.4932   -6.7360 C   0  0  0  0  0  0  0  0  0  0  0  0
   17.8674   -6.4032   -6.8458 C   0  0  2  0  0  0  0  0  0  0  0  0
   18.0393   -7.6408   -7.5098 C   0  0  0  0  0  0  0  0  0  0  0  0
   17.2148   -7.7590   -6.3638 C   0  0  1  0  0  0  0  0  0  0  0  0
  1  2  1  0
  2  3  1  0
  2  4  1  0
  4  5  1  0
  5  6  1  0
  6  7  1  0
  7  8  1  6
  7  9  1  0
  9 10  1  1
 10 11  1  0
 11 12  1  0
 12 13  1  6
 12 14  1  0
 14 15  1  0
 15 16  1  0
 16 17  1  6
 16 18  1  0
 18 19  1  0
 19 20  1  0
 20 21  1  6
 22 20  1  0
 22 23  1  6
 23 24  1  0
 24 25  1  6
 24 26  1  0
 27 26  1  6
 27 28  1  0
 29 28  1  6
 24  9  1  0
 29 22  1  0
 29 27  1  0
M  RAD  1  14   2
M  END
>  <docking_score>  (1) 
-5.9699999999999998

$$$$

     RDKit          3D

 29 31  0  0  0  0  0  0  0  0999 V2000
   20.3770   -8.2812   -6.3318 C   0  0  0  0  0  0  0  0  0  0  0  0
   19.2465   -8.1446   -7.3073 C   0  0  0  0  0  0  0  0  0  0  0  0
   19.6653   -8.2499   -8.7400 C   0  0  0  0  0  0  0  0  0  0  0  0
   18.0819   -9.0540   -6.9745 C   0  0  0  0  0  0  0  0  0  0  0  0
   17.2408   -8.3243   -5.9247 C   0  0  0  0  0  0  0  0  0  0  0  0
   17.4836   -6.8580   -6.0850 C   0  0  0  0  0  0  0  0  0  0  0  0
   16.3412   -6.0129   -5.5850 C   0  0  1  0  0  0  0  0  0  0  0  0
   15.4630   -6.7519   -4.6160 C   0  0  0  0  0  0  0  0  0  0  0  0
   16.8696   -4.7135   -5.0409 C   0  0  1  0  0  0  0  0  0  0  0  0
   15.8352   -3.6404   -4.9538 C   0  0  0  0  0  0  0  0  0  0  0  0
   15.6035   -3.0663   -6.3489 C   0  0  0  0  0  0  0  0  0  0  0  0
   16.3166   -1.7743   -6.5651 C   0  0  1  0  0  0  0  0  0  0  0  0
   16.2168   -0.8148   -5.4320 C   0  0  0  0  0  0  0  0  0  0  0  0
   17.6920   -1.9178   -7.1385 C   0  0  0  0  0  3  0  0  0  0  0  0
   18.7793   -2.0055   -6.1240 C   0  0  0  0  0  0  0  0  0  0  0  0
   18.7796   -0.8797   -5.1279 C   0  0  2  0  0  0  0  0  0  0  0  0
   19.2069    0.4388   -5.7375 C   0  0  0  0  0  0  0  0  0  0  0  0
   19.7371   -1.2742   -3.9987 C   0  0  0  0  0  0  0  0  0  0  0  0
   18.9958   -1.1635   -2.6867 C   0  0  0  0  0  0  0  0  0  0  0  0
   19.3978   -2.2227   -1.7009 C   0  0  2  0  0  0  0  0  0  0  0  0
   20.7549   -2.3820   -1.5800 O   0  0  0  0  0  0  0  0  0  0  0  0
   18.6589   -3.5192   -1.9118 C   0  0  1  0  0  0  0  0  0  0  0  0
   17.8271   -3.4627   -3.2027 C   0  0  0  0  0  0  0  0  0  0  0  0
   17.6742   -4.8743   -3.7855 C   0  0  1  0  0  0  0  0  0  0  0  0
   17.0304   -5.6749   -2.8745 O   0  0  0  0  0  0  0  0  0  0  0  0
   19.0469   -5.4404   -4.1819 C   0  0  0  0  0  0  0  0  0  0  0  0
   20.0501   -4.6241   -3.4793 C   0  0  2  0  0  0  0  0  0  0  0  0
   20.8683   -4.8858   -2.3549 C   0  0  0  0  0  0  0  0  0  0  0  0
   19.5089   -4.7088   -1.9972 C   0  0  1  0  0  0  0  0  0  0  0  0
  1  2  1  0
  2  3  1  0
  2  4  1  0
  4  5  1  0
  5  6  1  0
  6  7  1  0
  7  8  1  1
  7  9  1  0
  9 10  1  1
 10 11  1  0
 11 12  1  0
 12 13  1  1
 12 14  1  0
 14 15  1  0
 15 16  1  0
 16 17  1  6
 16 18  1  0
 18 19  1  0
 19 20  1  0
 20 21  1  6
 22 20  1  0
 22 23  1  6
 23 24  1  0
 24 25  1  1
 24 26  1  0
 27 26  1  6
 27 28  1  0
 29 28  1  1
 24  9  1  0
 29 22  1  0
 29 27  1  0
M  RAD  1  14   2
M  END
>  <docking_score>  (2) 
-4.6920000000000002

$$$$

     RDKit          3D

 29 31  0  0  0  0  0  0  0  0999 V2000
    3.2639   11.7089   11.6710 C   0  0  0  0  0  0  0  0  0  0  0  0
    4.5646   11.6150   10.9311 C   0  0  0  0  0  0  0  0  0  0  0  0
    4.5710   10.5875    9.8433 C   0  0  0  0  0  0  0  0  0  0  0  0
    5.0596   12.9657   10.4569 C   0  0  0  0  0  0  0  0  0  0  0  0
    4.0073   13.5022    9.4838 C   0  0  0  0  0  0  0  0  0  0  0  0
    4.7148   14.3246    8.4553 C   0  0  0  0  0  0  0  0  0  0  0  0
    4.0353   14.3001    7.1112 C   0  0  1  0  0  0  0  0  0  0  0  0
    3.4263   15.6257    6.7526 C   0  0  0  0  0  0  0  0  0  0  0  0
    4.9872   13.7788    6.0691 C   0  0  1  0  0  0  0  0  0  0  0  0
    6.4175   13.8213    6.4954 C   0  0  0  0  0  0  0  0  0  0  0  0
    6.9251   15.2554    6.3717 C   0  0  0  0  0  0  0  0  0  0  0  0
    7.7278   15.4769    5.1344 C   0  0  1  0  0  0  0  0  0  0  0  0
    8.7106   14.4009    4.8329 C   0  0  0  0  0  0  0  0  0  0  0  0
    6.9283   15.9364    3.9550 C   0  0  0  0  0  3  0  0  0  0  0  0
    6.4317   14.8390    3.0786 C   0  0  0  0  0  0  0  0  0  0  0  0
    7.5056   13.8997    2.6054 C   0  0  2  0  0  0  0  0  0  0  0  0
    8.4322   14.5361    1.5910 C   0  0  0  0  0  0  0  0  0  0  0  0
    6.8051   12.6835    1.9908 C   0  0  0  0  0  0  0  0  0  0  0  0
    7.3425   11.4385    2.6573 C   0  0  0  0  0  0  0  0  0  0  0  0
    6.2957   10.3763    2.8346 C   0  0  2  0  0  0  0  0  0  0  0  0
    5.5439   10.1449    1.7109 O   0  0  0  0  0  0  0  0  0  0  0  0
    5.4682   10.5819    4.0772 C   0  0  1  0  0  0  0  0  0  0  0  0
    5.7993   11.9336    4.7289 C   0  0  0  0  0  0  0  0  0  0  0  0
    4.5734   12.4596    5.4880 C   0  0  1  0  0  0  0  0  0  0  0  0
    4.2278   11.5638    6.4697 O   0  0  0  0  0  0  0  0  0  0  0  0
    3.4141   12.7232    4.5141 C   0  0  0  0  0  0  0  0  0  0  0  0
    3.7332   11.9852    3.2811 C   0  0  2  0  0  0  0  0  0  0  0  0
    3.2137   10.7907    2.7285 C   0  0  0  0  0  0  0  0  0  0  0  0
    4.0190   10.5464    3.8682 C   0  0  1  0  0  0  0  0  0  0  0  0
  1  2  1  0
  2  3  1  0
  2  4  1  0
  4  5  1  0
  5  6  1  0
  6  7  1  0
  7  8  1  6
  7  9  1  0
  9 10  1  1
 10 11  1  0
 11 12  1  0
 12 13  1  6
 12 14  1  0
 14 15  1  0
 15 16  1  0
 16 17  1  6
 16 18  1  0
 18 19  1  0
 19 20  1  0
 20 21  1  6
 22 20  1  0
 22 23  1  6
 23 24  1  0
 24 25  1  1
 24 26  1  0
 27 26  1  1
 27 28  1  0
 29 28  1  6
 24  9  1  0
 29 22  1  0
 29 27  1  0
M  RAD  1  14   2
M  END
>  <docking_score>  (3) 
-4.5030000000000001

$$$$
