
     RDKit          3D

 87 90  0  0  0  0  0  0  0  0999 V2000
    6.4330    0.6505    7.8921 C   0  0  0  0  0  0  0  0  0  0  0  0
    7.0025    1.9311    8.4268 C   0  0  0  0  0  0  0  0  0  0  0  0
    7.2294    2.0932    9.9007 C   0  0  0  0  0  0  0  0  0  0  0  0
    7.3450    3.0495    7.4878 C   0  0  0  0  0  0  0  0  0  0  0  0
    8.7742    3.2960    7.1047 C   0  0  0  0  0  0  0  0  0  0  0  0
    9.1424    3.4849    5.6630 C   0  0  0  0  0  0  0  0  0  0  0  0
   10.5856    3.5139    5.2550 C   0  0  0  0  0  0  0  0  0  0  0  0
   10.9596    3.8650    3.8454 C   0  0  0  0  0  0  0  0  0  0  0  0
   11.6547    3.1918    6.2566 C   0  0  0  0  0  3  0  0  0  0  0  0
   12.8370    4.1021    6.4106 C   0  0  0  0  0  0  0  0  0  0  0  0
   12.8798    5.4071    5.6725 C   0  0  0  0  0  0  0  0  0  0  0  0
   11.9337    6.5102    6.0439 C   0  0  0  0  0  3  0  0  0  0  0  0
   10.7880    6.5511    5.0766 C   0  0  0  0  0  0  0  0  0  0  0  0
   12.4322    7.2241    7.2654 C   0  0  0  0  0  3  0  0  0  0  0  0
   12.0503    8.3585    8.1694 C   0  0  0  0  0  0  0  0  0  0  0  0
   10.9667    9.3826    8.3330 C   0  0  0  0  0  0  0  0  0  0  0  0
   12.2553    8.8176    8.8529 C   0  0  0  0  0  0  0  0  0  0  0  0
   12.0480    9.4575    9.3700 C   0  0  0  0  0  0  0  0  0  0  0  0
   12.7181   10.0271   10.5852 C   0  0  0  0  0  0  0  0  0  0  0  0
   12.8442   10.9786   11.7378 C   0  0  0  0  0  0  0  0  0  0  0  0
   14.1225   10.5439   12.3912 O   0  0  0  0  0  0  0  0  0  0  0  0
   12.4014   12.1236   12.5997 S   0  0  0  0  0  0  0  0  0  0  0  0
   11.4774   13.2354   13.0001 C   0  0  0  0  0  0  0  0  0  0  0  0
   10.4313   13.1046   11.9331 C   0  0  0  0  0  0  0  0  0  0  0  0
    9.4504   14.1922   12.2568 C   0  0  0  0  0  0  0  0  0  0  0  0
    9.8548   12.4532   10.7110 C   0  0  0  0  0  0  0  0  0  0  0  0
    9.8799   11.4305    9.6140 S   0  0  0  0  0  0  0  0  0  0  0  0
    9.5313    7.3273    4.8161 C   0  0  0  0  0  0  0  0  0  0  0  0
    8.7515    8.4759    5.3841 S   0  0  0  0  0  0  0  0  0  0  0  0
    8.8135    9.4593    6.5151 C   0  0  0  0  0  0  0  0  0  0  0  0
    9.6884    9.8174    7.6797 C   0  0  0  0  0  0  0  0  0  0  0  0
    8.4662   10.6756    7.5393 S   0  0  1  0  0  0  0  0  0  0  0  0
    8.8370   11.2335    8.4772 C   0  0  0  0  0  0  0  0  0  0  0  0
    9.8972   11.2790    9.4635 S   0  0  0  0  0  0  0  0  0  0  0  0
    9.7200   12.2353   10.3534 C   0  0  0  0  0  0  0  0  0  0  0  0
   10.5340   12.4956   11.3572 C   0  0  0  0  0  0  0  0  0  0  0  0
   10.0785   13.6054   12.1694 C   0  0  0  0  0  0  0  0  0  0  0  0
   10.3340   14.2442   13.0941 S   0  0  2  0  0  0  0  0  0  0  0  0
    9.1613   15.1793   13.0815 C   0  0  0  0  0  3  0  0  0  0  0  0
    7.8727   15.7544   12.5727 O   0  0  0  0  0  0  0  0  0  0  0  0
    6.6913   15.8702   11.6559 C   0  0  0  0  0  0  0  0  0  0  0  0
    5.8211   15.5066   10.4894 C   0  0  0  0  0  0  0  0  0  0  0  0
    5.4128   14.7264    9.2750 S   0  0  1  0  0  0  0  0  0  0  0  0
    4.1324   15.4037    8.8852 C   0  0  0  0  0  0  0  0  0  0  0  0
    5.5368   13.6647    8.2227 C   0  0  0  0  0  0  0  0  0  0  0  0
    6.1718   12.5049    7.5145 C   0  0  0  0  0  0  0  0  0  0  0  0
    7.2080   11.4476    7.2727 S   0  0  0  0  0  0  0  0  0  0  0  0
    5.9606   11.7425    6.4936 C   0  0  0  0  0  0  0  0  0  0  0  0
    6.0217   12.6349    5.2896 C   0  0  0  0  0  0  0  0  0  0  0  0
    7.3420   12.9324    4.6428 S   0  0  0  0  0  0  0  0  0  0  0  0
    4.7626   13.2298    4.7322 S   0  0  0  0  0  0  0  0  0  0  0  0
    4.3195   14.5941    5.1710 C   0  0  0  0  0  0  0  0  0  0  0  0
    2.9623   14.7815    5.7816 S   0  0  0  0  0  0  0  0  0  0  0  0
    5.2336   15.7709    4.9991 C   0  0  0  0  0  0  0  0  0  0  0  0
    6.6893   15.5539    4.7096 C   0  0  0  0  0  0  0  0  0  0  0  0
    7.7109   15.7929    5.7816 C   0  0  0  0  0  0  0  0  0  0  0  0
    7.3877   15.4716    7.2107 C   0  0  0  0  0  0  0  0  0  0  0  0
    6.6741   10.7615    6.0504 S   0  0  0  0  0  0  0  0  0  0  0  0
    7.7835   10.2891    6.5133 C   0  0  0  0  0  0  0  0  0  0  0  0
    8.6492   10.1691    5.2943 S   0  0  0  0  0  0  0  0  0  0  0  0
    7.5103    8.8855    6.9662 S   0  0  0  0  0  0  0  0  0  0  0  0
    6.2523    8.1903    6.5368 C   0  0  0  0  0  0  0  0  0  0  0  0
    6.1903    7.5087    5.2021 C   0  0  0  0  0  0  0  0  0  0  0  0
    5.6331    6.1203    5.0942 C   0  0  0  0  0  0  0  0  0  0  0  0
    5.0195    5.1646    6.0742 S   0  0  0  0  0  0  0  0  0  0  0  0
    5.6270    5.4153    3.7702 C   0  0  0  0  0  3  0  0  0  0  0  0
    6.8725    5.3765    2.9354 C   0  0  0  0  0  0  0  0  0  0  0  0
    6.7915    5.0059    1.4841 C   0  0  0  0  0  0  0  0  0  0  0  0
    7.9324    5.3245    0.5639 S   0  0  0  0  0  0  0  0  0  0  0  0
    8.3790    6.7457    0.3872 S   0  0  0  0  0  0  0  0  0  0  0  0
    8.6268    4.2223   -0.1795 S   0  0  0  0  0  0  0  0  0  0  0  0
    9.2105    4.4844   -1.5363 C   0  0  0  0  0  3  0  0  0  0  0  0
   10.6678    4.8116   -1.6753 S   0  0  0  0  0  0  0  0  0  0  0  0
   11.2536    5.0635   -3.0330 C   0  0  0  0  0  3  0  0  0  0  0  0
   12.7040    4.7787   -3.2887 S   0  0  0  0  0  0  0  0  0  0  0  0
   13.0983    3.7592   -4.3159 S   0  0  0  0  0  0  0  0  0  0  0  0
   14.5469    3.4384   -4.5366 S   0  0  0  0  0  0  0  0  0  0  0  0
   14.9354    2.1824   -5.2587 C   0  0  0  0  0  0  0  0  0  0  0  0
   13.9466    1.0637   -5.4029 C   0  0  0  0  0  0  0  0  0  0  0  0
   13.9364    0.2277   -6.6483 C   0  0  0  0  0  3  0  0  0  0  0  0
   14.4443   -1.1832   -6.6087 S   0  0  0  0  0  0  0  0  0  0  0  0
   13.5084   -2.3249   -6.8739 S   0  0  0  0  0  0  0  0  0  0  0  0
   15.8882   -1.4521   -6.3039 S   0  0  0  0  0  0  0  0  0  0  0  0
   16.3023   -1.8375   -4.9147 S   0  0  0  0  0  0  0  0  0  0  0  0
   17.5574   -2.6300   -4.6987 S   0  0  0  0  0  0  0  0  0  0  0  0
   18.5915   -2.7070   -5.7825 S   0  0  0  0  0  0  0  0  0  0  0  0
   18.1691   -2.7353   -7.2216 S   0  0  0  0  0  0  0  0  0  0  0  0
  1  2  1  0
  2  3  1  0
  2  4  1  0
  4  5  1  0
  5  6  1  0
  6  7  1  0
  7  8  1  0
  7  9  1  0
  9 10  1  0
 10 11  1  0
 11 12  1  0
 12 13  1  0
 12 14  1  0
 14 15  1  0
 15 16  1  0
 16 17  1  0
 16 18  1  0
 18 19  1  0
 19 20  1  0
 20 21  1  0
 20 22  1  0
 22 23  1  0
 23 24  1  0
 24 25  1  0
 24 26  1  0
 26 27  1  0
 27 28  1  0
 28 29  1  0
 29 30  1  0
 30 31  1  0
 31 32  1  0
 32 33  1  0
 33 34  1  0
 34 35  1  0
 35 36  1  0
 36 37  1  0
 37 38  1  0
 38 39  1  0
 39 40  1  0
 40 41  1  0
 41 42  1  0
 42 43  1  0
 43 44  1  0
 43 45  1  0
 45 46  1  0
 46 47  1  0
 47 48  1  0
 48 49  1  0
 49 50  1  0
 49 51  1  0
 51 52  1  0
 52 53  1  0
 52 54  1  0
 54 55  1  0
 55 56  1  0
 56 57  1  0
 47 58  1  0
 47 59  1  0
 59 60  1  0
 59 61  1  0
 61 62  1  0
 62 63  1  0
 63 64  1  0
 64 65  1  0
 64 66  1  0
 66 67  1  0
 67 68  1  0
 68 69  1  0
 69 70  1  0
 69 71  1  0
 71 72  1  0
 72 73  1  0
 73 74  1  0
 74 75  1  0
 75 76  1  0
 76 77  1  0
 77 78  1  0
 78 79  1  0
 79 80  1  0
 80 81  1  0
 81 82  1  0
 81 83  1  0
 83 84  1  0
 84 85  1  0
 85 86  1  0
 86 87  1  0
 28 13  1  0
 31 16  1  0
 38 23  1  0
 47 32  1  0
M  RAD  8   9   2  12   2  14   2  39   2  66   2  72   2  74   2  80   2
M  END
>  <docking_score>  (1) 
120.301

$$$$
