
     RDKit          3D

 30 31  0  0  0  0  0  0  0  0999 V2000
   13.9839   -1.7221   -5.3852 C   0  0  0  0  0  0  0  0  0  0  0  0
   14.6188   -0.7926   -4.3621 C   0  0  1  0  0  0  0  0  0  0  0  0
   13.7375    0.3830   -4.0380 C   0  0  0  0  0  0  0  0  0  0  0  0
   15.0760   -1.5331   -3.1357 C   0  0  0  0  0  0  0  0  0  0  0  0
   16.4509   -1.0300   -2.7574 C   0  0  0  0  0  0  0  0  0  0  0  0
   17.1675   -1.9606   -1.8120 C   0  0  0  0  0  0  0  0  0  0  0  0
   18.3497   -2.6464   -2.4564 C   0  0  1  0  0  0  0  0  0  0  0  0
   19.6137   -2.2734   -1.7232 C   0  0  0  0  0  0  0  0  0  0  0  0
   18.1796   -4.1451   -2.4032 C   0  0  0  0  0  3  0  0  0  0  0  0
   19.3063   -4.7471   -3.2503 C   0  0  0  0  0  0  0  0  0  0  0  0
   18.7006   -5.1043   -4.5902 C   0  0  0  0  0  0  0  0  0  0  0  0
   18.9447   -6.5659   -4.9228 C   0  0  1  0  0  0  0  0  0  0  0  0
   19.9957   -7.0788   -3.9496 C   0  0  0  0  0  0  0  0  0  0  0  0
   17.6692   -7.3695   -4.8303 C   0  0  0  0  0  0  0  0  0  0  0  0
   16.9810   -7.5397   -6.1451 C   0  0  0  0  0  0  0  0  0  0  0  0
   16.8662   -6.2578   -6.9326 C   0  0  1  0  0  0  0  0  0  0  0  0
   17.6354   -6.3191   -8.2282 C   0  0  0  0  0  3  0  0  0  0  0  0
   18.0618   -4.9816   -8.7279 C   0  0  0  0  0  0  0  0  0  0  0  0
   18.7032   -4.1125   -7.6971 C   0  0  1  0  0  0  0  0  0  0  0  0
   20.0910   -4.1316   -7.9432 O   0  0  0  0  0  0  0  0  0  0  0  0
   18.2627   -2.6789   -7.9010 C   0  0  0  0  0  0  0  0  0  0  0  0
   19.2175   -1.7155   -7.2127 C   0  0  0  0  0  0  0  0  0  0  0  0
   18.6288   -1.3302   -5.8743 C   0  0  0  0  0  0  0  0  0  0  0  0
   18.8801    0.0096   -5.5610 O   0  0  0  0  0  0  0  0  0  0  0  0
   15.5175   -5.9892   -7.1295 O   0  0  0  0  0  0  0  0  0  0  0  0
   15.2340   -4.6497   -7.2593 C   0  0  0  0  0  0  0  0  0  0  0  0
   14.5986   -4.0669   -5.9915 C   0  0  2  0  0  0  0  0  0  0  0  0
   15.0914   -2.6887   -5.8228 C   0  0  2  0  0  0  0  0  0  0  0  0
   15.8140   -3.1900   -4.6785 C   0  0  0  0  0  0  0  0  0  0  0  0
   15.3851   -4.3889   -4.8257 C   0  0  0  0  0  0  0  0  0  0  0  0
  1  2  1  0
  2  3  1  1
  2  4  1  0
  4  5  1  0
  5  6  1  0
  6  7  1  0
  7  8  1  1
  7  9  1  0
  9 10  1  0
 10 11  1  0
 11 12  1  0
 12 13  1  1
 12 14  1  0
 14 15  1  0
 15 16  1  0
 16 17  1  6
 17 18  1  0
 18 19  1  0
 19 20  1  6
 19 21  1  0
 21 22  1  0
 22 23  1  0
 23 24  1  0
 16 25  1  0
 25 26  1  0
 27 26  1  6
 27 28  1  0
 28 29  1  0
 29 30  2  0
 28  1  1  1
 30 27  1  0
M  RAD  2   9   2  17   2
M  END
>  <docking_score>  (1) 
-4.8949999999999996

$$$$

     RDKit          3D

 30 31  0  0  0  0  0  0  0  0999 V2000
   15.4449   -0.6419   -5.4577 C   0  0  0  0  0  0  0  0  0  0  0  0
   14.2186   -1.4621   -5.0873 C   0  0  1  0  0  0  0  0  0  0  0  0
   12.9693   -0.6253   -5.0355 C   0  0  0  0  0  0  0  0  0  0  0  0
   14.0694   -2.6777   -5.9600 C   0  0  0  0  0  0  0  0  0  0  0  0
   13.7143   -3.8567   -5.0822 C   0  0  0  0  0  0  0  0  0  0  0  0
   13.9361   -5.1790   -5.7719 C   0  0  0  0  0  0  0  0  0  0  0  0
   15.0840   -5.9600   -5.1759 C   0  0  1  0  0  0  0  0  0  0  0  0
   14.5770   -7.2736   -4.6356 C   0  0  0  0  0  0  0  0  0  0  0  0
   16.1316   -6.2370   -6.2265 C   0  0  0  0  0  3  0  0  0  0  0  0
   17.3366   -6.8432   -5.4987 C   0  0  0  0  0  0  0  0  0  0  0  0
   18.3462   -5.7295   -5.3254 C   0  0  0  0  0  0  0  0  0  0  0  0
   19.6924   -6.1229   -5.9080 C   0  0  1  0  0  0  0  0  0  0  0  0
   19.6494   -7.6216   -6.1666 C   0  0  0  0  0  0  0  0  0  0  0  0
   19.9878   -5.3536   -7.1738 C   0  0  0  0  0  0  0  0  0  0  0  0
   20.8266   -4.1389   -6.9452 C   0  0  0  0  0  0  0  0  0  0  0  0
   20.3570   -3.2949   -5.7860 C   0  0  1  0  0  0  0  0  0  0  0  0
   21.3797   -3.2342   -4.6796 C   0  0  0  0  0  3  0  0  0  0  0  0
   20.9582   -3.9511   -3.4431 C   0  0  0  0  0  0  0  0  0  0  0  0
   20.9270   -3.1010   -2.2161 C   0  0  1  0  0  0  0  0  0  0  0  0
   20.7787   -1.7650   -2.6404 O   0  0  0  0  0  0  0  0  0  0  0  0
   19.6869   -3.4233   -1.4106 C   0  0  0  0  0  0  0  0  0  0  0  0
   18.8214   -4.4443   -2.1332 C   0  0  0  0  0  0  0  0  0  0  0  0
   17.4709   -3.8214   -2.4064 C   0  0  0  0  0  0  0  0  0  0  0  0
   16.8071   -3.4776   -1.2243 O   0  0  0  0  0  0  0  0  0  0  0  0
   20.0270   -2.0360   -6.2719 O   0  0  0  0  0  0  0  0  0  0  0  0
   19.0607   -1.3942   -5.5332 C   0  0  0  0  0  0  0  0  0  0  0  0
   17.6935   -1.4135   -6.2269 C   0  0  2  0  0  0  0  0  0  0  0  0
   16.6546   -1.5460   -5.1906 C   0  0  2  0  0  0  0  0  0  0  0  0
   16.4309   -2.8694   -5.7209 C   0  0  0  0  0  0  0  0  0  0  0  0
   17.3348   -2.7537   -6.6223 C   0  0  0  0  0  0  0  0  0  0  0  0
  1  2  1  0
  2  3  1  6
  2  4  1  0
  4  5  1  0
  5  6  1  0
  6  7  1  0
  7  8  1  6
  7  9  1  0
  9 10  1  0
 10 11  1  0
 11 12  1  0
 12 13  1  6
 12 14  1  0
 14 15  1  0
 15 16  1  0
 16 17  1  1
 17 18  1  0
 18 19  1  0
 19 20  1  6
 19 21  1  0
 21 22  1  0
 22 23  1  0
 23 24  1  0
 16 25  1  0
 25 26  1  0
 27 26  1  1
 27 28  1  0
 28 29  1  0
 29 30  2  0
 28  1  1  6
 30 27  1  0
M  RAD  2   9   2  17   2
M  END
>  <docking_score>  (2) 
-4.516

$$$$

     RDKit          3D

 30 31  0  0  0  0  0  0  0  0999 V2000
   15.2032   -7.8983   -4.9594 C   0  0  0  0  0  0  0  0  0  0  0  0
   16.4361   -8.7710   -5.1387 C   0  0  1  0  0  0  0  0  0  0  0  0
   16.1480  -10.2236   -4.8727 C   0  0  0  0  0  0  0  0  0  0  0  0
   17.0988   -8.5430   -6.4692 C   0  0  0  0  0  0  0  0  0  0  0  0
   18.5927   -8.4570   -6.2514 C   0  0  0  0  0  0  0  0  0  0  0  0
   19.3132   -7.8372   -7.4220 C   0  0  0  0  0  0  0  0  0  0  0  0
   19.8814   -6.4748   -7.0994 C   0  0  1  0  0  0  0  0  0  0  0  0
   21.3809   -6.5000   -7.2594 C   0  0  0  0  0  0  0  0  0  0  0  0
   19.3094   -5.4339   -8.0307 C   0  0  0  0  0  3  0  0  0  0  0  0
   19.7742   -4.0704   -7.5069 C   0  0  0  0  0  0  0  0  0  0  0  0
   18.6113   -3.4789   -6.7405 C   0  0  0  0  0  0  0  0  0  0  0  0
   18.2574   -2.1006   -7.2713 C   0  0  1  0  0  0  0  0  0  0  0  0
   19.4035   -1.6566   -8.1680 C   0  0  0  0  0  0  0  0  0  0  0  0
   16.9470   -2.1223   -8.0220 C   0  0  0  0  0  0  0  0  0  0  0  0
   15.7779   -1.7231   -7.1822 C   0  0  0  0  0  0  0  0  0  0  0  0
   15.7473   -2.4018   -5.8350 C   0  0  1  0  0  0  0  0  0  0  0  0
   15.8845   -1.4162   -4.7019 C   0  0  0  0  0  3  0  0  0  0  0  0
   16.4379   -2.0186   -3.4564 C   0  0  0  0  0  0  0  0  0  0  0  0
   17.8561   -2.4721   -3.5666 C   0  0  1  0  0  0  0  0  0  0  0  0
   18.6621   -1.3157   -3.5780 O   0  0  0  0  0  0  0  0  0  0  0  0
   18.2399   -3.2363   -2.3178 C   0  0  0  0  0  0  0  0  0  0  0  0
   19.4882   -4.0721   -2.5561 C   0  0  0  0  0  0  0  0  0  0  0  0
   19.0778   -5.3726   -3.2094 C   0  0  0  0  0  0  0  0  0  0  0  0
   17.9289   -5.9112   -2.6209 O   0  0  0  0  0  0  0  0  0  0  0  0
   14.5773   -3.1460   -5.7509 O   0  0  0  0  0  0  0  0  0  0  0  0
   14.6776   -4.2420   -4.9262 C   0  0  0  0  0  0  0  0  0  0  0  0
   14.8005   -5.5509   -5.7151 C   0  0  2  0  0  0  0  0  0  0  0  0
   15.7050   -6.4491   -4.9763 C   0  0  2  0  0  0  0  0  0  0  0  0
   16.6370   -6.2433   -6.0588 C   0  0  0  0  0  0  0  0  0  0  0  0
   15.8498   -5.4619   -6.7013 C   0  0  0  0  0  0  0  0  0  0  0  0
  1  2  1  0
  2  3  1  6
  2  4  1  0
  4  5  1  0
  5  6  1  0
  6  7  1  0
  7  8  1  6
  7  9  1  0
  9 10  1  0
 10 11  1  0
 11 12  1  0
 12 13  1  6
 12 14  1  0
 14 15  1  0
 15 16  1  0
 16 17  1  1
 17 18  1  0
 18 19  1  0
 19 20  1  1
 19 21  1  0
 21 22  1  0
 22 23  1  0
 23 24  1  0
 16 25  1  0
 25 26  1  0
 27 26  1  1
 27 28  1  0
 28 29  1  0
 29 30  2  0
 28  1  1  6
 30 27  1  0
M  RAD  2   9   2  17   2
M  END
>  <docking_score>  (3) 
-4.3369999999999997

$$$$
