
     RDKit          3D

 26 27  0  0  0  0  0  0  0  0999 V2000
    4.4002    7.9311    3.0771 C   0  0  0  0  0  0  0  0  0  0  0  0
    3.1334    8.0574    3.8753 C   0  0  1  0  0  0  0  0  0  0  0  0
    2.7318    6.7795    4.5627 C   0  0  0  0  0  0  0  0  0  0  0  0
    3.6380    6.5274    5.7614 C   0  0  2  0  0  0  0  0  0  0  0  0
    3.1056    5.5057    6.5555 O   0  0  0  0  0  0  0  0  0  0  0  0
    3.7342    7.7660    6.6156 C   0  0  2  0  0  0  0  0  0  0  0  0
    3.6532    7.4889    7.9700 O   0  0  0  0  0  0  0  0  0  0  0  0
    2.6681    8.7437    6.1557 C   0  0  1  0  0  0  0  0  0  0  0  0
    2.4912    9.7923    7.0394 O   0  0  0  0  0  0  0  0  0  0  0  0
    3.1181    9.2503    4.7900 C   0  0  1  0  0  0  0  0  0  0  0  0
    4.4128    9.8518    4.9743 N   0  0  0  0  0  0  0  0  0  0  0  0
    4.4352   11.2700    4.7384 C   0  0  0  0  0  3  0  0  0  0  0  0
    5.3166   11.6790    3.5922 C   0  0  0  0  0  0  0  0  0  0  0  0
    6.6566   12.2055    4.0224 C   0  0  2  0  0  0  0  0  0  0  0  0
    7.6161   11.1865    4.0962 O   0  0  0  0  0  0  0  0  0  0  0  0
    6.5082   12.7816    5.4040 C   0  0  0  0  0  3  0  0  0  0  0  0
    6.1426   14.1153    5.4134 O   0  0  0  0  0  0  0  0  0  0  0  0
    5.7056   14.5522    4.2652 O   0  0  0  0  0  0  0  0  0  0  0  0
    6.4228   15.5817    3.8369 O   0  0  0  0  0  0  0  0  0  0  0  0
    7.7526   15.4508    4.2638 C   0  0  1  0  0  0  0  0  0  0  0  0
    7.7977   15.5583    5.6592 O   0  0  0  0  0  0  0  0  0  0  0  0
    8.2208   14.0724    3.8896 C   0  0  2  0  0  0  0  0  0  0  0  0
    9.5817   14.0526    3.2529 C   0  0  0  0  0  0  0  0  0  0  0  0
    7.1998   13.2781    3.1262 C   0  0  1  0  0  0  0  0  0  0  0  0
    7.6563   12.8104    1.9089 O   0  0  0  0  0  0  0  0  0  0  0  0
    6.7995   13.2408    0.9927 O   0  0  0  0  0  0  0  0  0  0  0  0
  2  1  1  1
  2  3  1  0
  3  4  1  0
  4  5  1  1
  4  6  1  0
  6  7  1  1
  6  8  1  0
  8  9  1  1
  8 10  1  0
 10 11  1  1
 11 12  1  0
 12 13  1  0
 13 14  1  0
 14 15  1  1
 14 16  1  0
 16 17  1  0
 17 18  1  0
 18 19  1  0
 19 20  1  0
 20 21  1  1
 20 22  1  0
 22 23  1  6
 22 24  1  0
 24 25  1  6
 25 26  1  0
 10  2  1  0
 24 14  1  0
M  RAD  2  12   2  16   2
M  END
>  <docking_score>  (1) 
-4.2530000000000001

$$$$

     RDKit          3D

 26 27  0  0  0  0  0  0  0  0999 V2000
    4.3951    8.4328   10.1303 C   0  0  0  0  0  0  0  0  0  0  0  0
    3.7627    9.6131   10.8121 C   0  0  1  0  0  0  0  0  0  0  0  0
    4.2792    9.8428   12.2076 C   0  0  0  0  0  0  0  0  0  0  0  0
    5.6810   10.4373   12.1515 C   0  0  2  0  0  0  0  0  0  0  0  0
    6.0522   10.9041   13.4173 O   0  0  0  0  0  0  0  0  0  0  0  0
    5.7156   11.6099   11.2046 C   0  0  2  0  0  0  0  0  0  0  0  0
    6.4373   12.6805   11.7054 O   0  0  0  0  0  0  0  0  0  0  0  0
    4.2856   11.9821   10.8574 C   0  0  1  0  0  0  0  0  0  0  0  0
    4.1946   13.2036   10.2160 O   0  0  0  0  0  0  0  0  0  0  0  0
    3.7584   10.8592    9.9712 C   0  0  1  0  0  0  0  0  0  0  0  0
    4.6301   10.7860    8.8280 N   0  0  0  0  0  0  0  0  0  0  0  0
    3.9632   11.0000    7.5724 C   0  0  0  0  0  3  0  0  0  0  0  0
    4.8795   10.9422    6.3828 C   0  0  0  0  0  0  0  0  0  0  0  0
    4.8867   12.2045    5.5677 C   0  0  2  0  0  0  0  0  0  0  0  0
    5.3289   13.3040    6.3160 O   0  0  0  0  0  0  0  0  0  0  0  0
    3.4727   12.4918    5.1426 C   0  0  0  0  0  3  0  0  0  0  0  0
    3.1195   11.8930    3.9471 O   0  0  0  0  0  0  0  0  0  0  0  0
    3.9459   10.9631    3.5566 O   0  0  0  0  0  0  0  0  0  0  0  0
    4.4356   11.2281    2.3534 O   0  0  0  0  0  0  0  0  0  0  0  0
    4.5467   12.6152    2.1754 C   0  0  1  0  0  0  0  0  0  0  0  0
    3.2646   13.1777    2.1553 O   0  0  0  0  0  0  0  0  0  0  0  0
    5.2792   13.1727    3.3635 C   0  0  2  0  0  0  0  0  0  0  0  0
    6.3605   14.1500    2.9980 C   0  0  0  0  0  0  0  0  0  0  0  0
    5.7362   12.1219    4.3347 C   0  0  1  0  0  0  0  0  0  0  0  0
    7.0939   12.1530    4.5889 O   0  0  0  0  0  0  0  0  0  0  0  0
    7.5907   11.0116    4.1317 O   0  0  0  0  0  0  0  0  0  0  0  0
  2  1  1  6
  2  3  1  0
  3  4  1  0
  4  5  1  1
  4  6  1  0
  6  7  1  1
  6  8  1  0
  8  9  1  6
  8 10  1  0
 10 11  1  6
 11 12  1  0
 12 13  1  0
 13 14  1  0
 14 15  1  1
 14 16  1  0
 16 17  1  0
 17 18  1  0
 18 19  1  0
 19 20  1  0
 20 21  1  1
 20 22  1  0
 22 23  1  6
 22 24  1  0
 24 25  1  1
 25 26  1  0
 10  2  1  0
 24 14  1  0
M  RAD  2  12   2  16   2
M  END
>  <docking_score>  (2) 
-3.8679999999999999

$$$$

     RDKit          3D

 26 27  0  0  0  0  0  0  0  0999 V2000
    5.5418   15.3827    8.2663 C   0  0  0  0  0  0  0  0  0  0  0  0
    5.7014   13.8983    8.4366 C   0  0  1  0  0  0  0  0  0  0  0  0
    5.6685   13.4563    9.8754 C   0  0  0  0  0  0  0  0  0  0  0  0
    4.2405   13.5136   10.4041 C   0  0  2  0  0  0  0  0  0  0  0  0
    4.1602   12.8517   11.6342 O   0  0  0  0  0  0  0  0  0  0  0  0
    3.3004   12.8205    9.4508 C   0  0  2  0  0  0  0  0  0  0  0  0
    2.3740   12.0215   10.0998 O   0  0  0  0  0  0  0  0  0  0  0  0
    4.1312   12.0483    8.4421 C   0  0  1  0  0  0  0  0  0  0  0  0
    3.3743   11.1657    7.6939 O   0  0  0  0  0  0  0  0  0  0  0  0
    4.7933   13.0925    7.5500 C   0  0  1  0  0  0  0  0  0  0  0  0
    3.7341   13.8650    6.9556 N   0  0  0  0  0  0  0  0  0  0  0  0
    3.7809   13.9095    5.5193 C   0  0  0  0  0  3  0  0  0  0  0  0
    5.0921   13.4560    4.9421 C   0  0  0  0  0  0  0  0  0  0  0  0
    4.9475   12.6462    3.6846 C   0  0  2  0  0  0  0  0  0  0  0  0
    4.7229   13.4596    2.5656 O   0  0  0  0  0  0  0  0  0  0  0  0
    3.7446   11.7565    3.8402 C   0  0  0  0  0  3  0  0  0  0  0  0
    4.0288   10.5348    4.4224 O   0  0  0  0  0  0  0  0  0  0  0  0
    5.1978   10.4819    4.9975 O   0  0  0  0  0  0  0  0  0  0  0  0
    5.9403    9.5073    4.4909 O   0  0  0  0  0  0  0  0  0  0  0  0
    5.6345    9.3272    3.1337 C   0  0  1  0  0  0  0  0  0  0  0  0
    4.3221    8.8529    3.0198 O   0  0  0  0  0  0  0  0  0  0  0  0
    5.7013   10.6721    2.4662 C   0  0  2  0  0  0  0  0  0  0  0  0
    6.4506   10.6597    1.1637 C   0  0  0  0  0  0  0  0  0  0  0  0
    6.1334   11.7783    3.3859 C   0  0  1  0  0  0  0  0  0  0  0  0
    7.2369   12.4767    2.9350 O   0  0  0  0  0  0  0  0  0  0  0  0
    8.2766   12.0282    3.6254 O   0  0  0  0  0  0  0  0  0  0  0  0
  2  1  1  1
  2  3  1  0
  3  4  1  0
  4  5  1  1
  4  6  1  0
  6  7  1  1
  6  8  1  0
  8  9  1  6
  8 10  1  0
 10 11  1  1
 11 12  1  0
 12 13  1  0
 13 14  1  0
 14 15  1  6
 14 16  1  0
 16 17  1  0
 17 18  1  0
 18 19  1  0
 19 20  1  0
 20 21  1  1
 20 22  1  0
 22 23  1  6
 22 24  1  0
 24 25  1  6
 25 26  1  0
 10  2  1  0
 24 14  1  0
M  RAD  2  12   2  16   2
M  END
>  <docking_score>  (3) 
-3.3799999999999999

$$$$
