
     RDKit          3D

 47 51  0  0  0  0  0  0  0  0999 V2000
   19.9158   -0.3361   -1.2343 C   0  0  0  0  0  0  0  0  0  0  0  0
   19.1706   -0.8694   -2.3298 O   0  0  0  0  0  0  0  0  0  0  0  0
   19.7223   -0.8789   -3.6374 C   0  0  0  0  0  0  0  0  0  0  0  0
   18.9722   -1.2271   -4.6677 C   0  0  0  0  0  0  0  0  0  0  0  0
   17.6156   -1.5840   -4.3745 C   0  0  0  0  0  0  0  0  0  0  0  0
   16.8208   -2.5277   -4.7158 C   0  0  0  0  0  0  0  0  0  0  0  0
   17.8818   -3.0897   -5.5452 C   0  0  1  0  0  0  0  0  0  0  0  0
   17.0127   -2.2226   -6.2721 N   0  0  0  0  0  0  0  0  0  0  0  0
   15.4420   -1.6128   -5.3640 S   0  0  0  0  0  0  0  0  0  0  0  0
   14.2562   -1.1140   -6.3414 C   0  0  0  0  0  0  0  0  0  0  0  0
   15.1431   -1.5117   -3.9011 C   0  0  2  0  0  0  0  0  0  0  0  0
   14.7994   -0.1044   -3.5271 C   0  0  0  0  0  3  0  0  0  0  0  0
   13.8159    0.4866   -4.4177 C   0  0  0  0  0  0  0  0  0  0  0  0
   13.2163   -0.3475   -5.5187 C   0  0  1  0  0  0  0  0  0  0  0  0
   12.4916    0.6444   -6.4204 C   0  0  0  0  0  0  0  0  0  0  0  0
   11.9610   -0.0467   -7.4832 F   0  0  0  0  0  0  0  0  0  0  0  0
   15.4931   -2.1528   -2.5421 C   0  0  0  0  0  0  0  0  0  0  0  0
   16.5628   -3.0168   -2.1501 C   0  0  0  0  0  0  0  0  0  0  0  0
   17.7201   -3.5994   -2.8768 C   0  0  0  0  0  0  0  0  0  0  0  0
   18.2112   -3.6142   -4.2024 C   0  0  0  0  0  0  0  0  0  0  0  0
   19.4122   -4.3691   -3.9877 C   0  0  0  0  0  0  0  0  0  0  0  0
   19.9941   -4.9867   -5.2543 C   0  0  1  0  0  0  0  0  0  0  0  0
   21.3672   -6.0825   -4.5985 S   0  0  0  0  0  0  0  0  0  0  0  0
   20.9539   -6.5636   -2.8497 C   0  0  0  0  0  0  0  0  0  0  0  0
   21.3490   -8.0416   -2.5849 C   0  0  0  0  0  0  0  0  0  0  0  0
   20.9295   -8.7840   -3.8599 C   0  0  0  0  0  0  0  0  0  0  0  0
   19.6154   -8.6991   -4.1732 C   0  0  0  0  0  0  0  0  0  0  0  0
   18.9654   -9.4358   -5.5614 S   0  0  2  0  0  0  0  0  0  0  0  0
   19.7666   -8.7725   -6.8535 O   0  0  0  0  0  0  0  0  0  0  0  0
   18.9552   -8.1870   -7.7843 C   0  0  0  0  0  0  0  0  0  0  0  0
   19.0574   -6.3210   -7.6578 S   0  0  0  0  0  0  0  0  0  0  0  0
   18.8214   -7.9026   -3.2317 C   0  0  0  0  0  0  0  0  0  0  0  0
   18.1185   -6.8130   -3.7111 C   0  0  0  0  0  0  0  0  0  0  0  0
   18.3190   -6.6890   -5.1694 C   0  0  0  0  0  0  0  0  0  0  0  0
   19.0725   -5.9542   -5.8256 C   0  0  0  0  0  0  0  0  0  0  0  0
   15.9845   -3.6796   -5.2101 C   0  0  0  0  0  2  0  0  0  0  0  0
   15.4570   -4.7141   -4.8706 C   0  0  0  0  0  0  0  0  0  0  0  0
   15.0426   -5.5546   -4.5848 C   0  0  0  0  0  0  0  0  0  0  0  0
   14.2766   -7.1419   -4.0546 S   0  0  0  0  0  0  0  0  0  0  0  0
   15.5352   -8.2624   -4.8447 C   0  0  0  0  0  0  0  0  0  0  0  0
   16.2097   -8.8526   -5.2522 C   0  0  0  0  0  0  0  0  0  0  0  0
   17.3226   -9.8630   -5.9435 S   0  0  1  0  0  0  0  0  0  0  0  0
   16.8444  -10.9921   -7.1422 C   0  0  0  0  0  0  0  0  0  0  0  0
   16.4425  -11.6766   -8.0333 C   0  0  0  0  0  0  0  0  0  0  0  0
   17.0124  -13.1530   -7.8616 C   0  0  0  0  0  0  0  0  0  0  0  0
   17.3969  -14.1621   -7.7623 C   0  0  0  0  0  0  0  0  0  0  0  0
   17.9180  -15.5930   -7.6246 C   0  0  0  0  0  1  0  0  0  0  0  0
  1  2  1  0
  2  3  1  0
  3  4  2  3
  4  5  1  0
  5  6  2  3
  6  7  1  0
  7  8  1  1
  8  9  1  0
  9 10  1  0
  9 11  1  0
 11 12  1  1
 12 13  1  0
 13 14  1  0
 14 15  1  6
 15 16  1  0
 11 17  1  0
 17 18  2  3
 18 19  1  0
 19 20  2  3
 20 21  1  0
 22 21  1  1
 22 23  1  0
 23 24  1  0
 24 25  1  0
 25 26  1  0
 26 27  2  3
 27 28  1  0
 28 29  1  6
 29 30  1  0
 30 31  1  0
 27 32  1  0
 32 33  2  3
 33 34  1  0
 34 35  2  3
  6 36  1  0
 36 37  1  0
 37 38  3  0
 38 39  1  0
 39 40  1  0
 40 41  3  0
 42 41  1  6
 42 43  1  0
 43 44  2  3
 44 45  1  0
 45 46  3  0
 46 47  1  0
 20  7  1  0
 14 10  1  0
 35 22  1  0
 42 28  1  0
 35 31  1  0
M  RAD  3  12   2  36   3  47   2
M  END
>  <docking_score>  (1) 
4.6159999999999997

$$$$
