
     RDKit          3D

 21 21  0  0  0  0  0  0  0  0999 V2000
  135.4644  124.3847  140.3924 Cl  0  0  0  0  0  0  0  0  0  0  0  0
  136.1705  125.1813  141.4494 C   0  0  0  0  0  0  0  0  0  0  0  0
  135.9245  126.6564  141.5663 C   0  0  0  0  0  0  0  0  0  0  0  0
  136.6305  127.4529  142.6232 C   0  0  0  0  0  0  0  0  0  0  0  0
  135.8539  128.0383  143.7652 N   0  0  0  0  0  0  0  0  0  0  0  0
  134.3977  128.2017  143.4451 C   0  0  0  0  0  0  0  0  0  0  0  0
  133.2001  128.7175  144.1866 N   0  0  0  0  0  0  0  0  0  0  0  0
  132.9627  129.2833  145.5553 N   0  0  0  0  0  0  0  0  0  0  0  0
  133.8246  129.5679  146.7494 N   0  0  0  0  0  0  0  0  0  0  0  0
  135.0222  129.0522  146.0080 C   0  0  0  0  0  0  0  0  0  0  0  0
  136.4785  128.8887  146.3281 C   0  0  0  0  0  0  0  0  0  0  0  0
  136.7158  128.3228  144.9594 C   0  0  0  0  0  0  0  0  0  0  0  0
  138.0611  128.3114  145.6229 C   0  0  0  0  0  0  0  0  0  0  0  0
  137.6496  127.7510  143.9341 O   0  0  0  0  0  0  0  0  0  0  0  0
  138.9878  128.3872  143.7008 C   0  0  0  0  0  0  0  0  0  0  0  0
  140.2316  127.5491  143.7279 C   0  0  0  0  0  0  0  0  0  0  0  0
  139.0824  129.8614  143.4404 C   0  0  0  0  0  0  0  0  0  0  0  0
  139.8568  130.3663  142.2592 C   0  0  0  0  0  0  0  0  0  0  0  0
  139.9513  131.8404  141.9988 S   0  0  0  0  0  0  0  0  0  0  0  0
  138.8422  132.5473  141.2776 O   0  0  0  0  0  0  0  0  0  0  0  0
  137.9684  131.7916  140.3207 C   0  0  0  0  0  2  0  0  0  0  0  0
  1  2  1  0
  2  3  2  3
  3  4  1  0
  4  5  1  0
  5  6  1  0
  6  7  1  0
  7  8  1  0
  8  9  1  0
  9 10  2  0
 10 11  1  0
 11 12  1  0
 12 13  1  0
 12 14  1  0
 14 15  1  0
 15 16  1  0
 15 17  1  0
 17 18  2  3
 18 19  1  0
 19 20  1  0
 20 21  1  0
 12  5  1  0
M  RAD  1  21   3
M  END
>  <docking_score>  (1) 
-4.9779999999999998

$$$$

     RDKit          3D

 21 21  0  0  0  0  0  0  0  0999 V2000
  140.9375  127.6516  144.3188 Cl  0  0  0  0  0  0  0  0  0  0  0  0
  139.8269  128.5258  143.8165 C   0  0  0  0  0  0  0  0  0  0  0  0
  139.8266  128.9933  142.3912 C   0  0  0  0  0  0  0  0  0  0  0  0
  138.7160  129.8675  141.8889 C   0  0  0  0  0  0  0  0  0  0  0  0
  138.9120  131.3519  141.7992 N   0  0  0  0  0  0  0  0  0  0  0  0
  140.2997  131.7719  142.1837 C   0  0  0  0  0  0  0  0  0  0  0  0
  141.0246  133.0820  142.2743 N   0  0  0  0  0  0  0  0  0  0  0  0
  140.6620  134.5147  142.0179 N   0  0  0  0  0  0  0  0  0  0  0  0
  139.4243  135.2308  141.5648 N   0  0  0  0  0  0  0  0  0  0  0  0
  138.6995  133.9207  141.4742 C   0  0  0  0  0  0  0  0  0  0  0  0
  137.3118  133.5008  141.0897 C   0  0  0  0  0  0  0  0  0  0  0  0
  137.6744  132.0680  141.3460 C   0  0  0  0  0  0  0  0  0  0  0  0
  136.2401  132.0331  140.9082 C   0  0  0  0  0  0  0  0  0  0  0  0
  137.2946  130.6172  141.3758 O   0  0  0  0  0  0  0  0  0  0  0  0
  136.0084  130.1917  142.0197 C   0  0  0  0  0  0  0  0  0  0  0  0
  135.0659  129.2850  141.2852 C   0  0  0  0  0  0  0  0  0  0  0  0
  135.6646  130.6729  143.3983 C   0  0  0  0  0  0  0  0  0  0  0  0
  134.6035  129.9727  144.1942 C   0  0  0  0  0  0  0  0  0  0  0  0
  134.2598  130.4539  145.5727 S   0  0  0  0  0  0  0  0  0  0  0  0
  134.5634  129.5950  146.7644 O   0  0  0  0  0  0  0  0  0  0  0  0
  135.8962  128.9162  146.8796 C   0  0  0  0  0  2  0  0  0  0  0  0
  1  2  1  0
  2  3  2  3
  3  4  1  0
  4  5  1  0
  5  6  1  0
  6  7  1  0
  7  8  1  0
  8  9  1  0
  9 10  2  0
 10 11  1  0
 11 12  1  0
 12 13  1  0
 12 14  1  0
 14 15  1  0
 15 16  1  0
 15 17  1  0
 17 18  2  3
 18 19  1  0
 19 20  1  0
 20 21  1  0
 12  5  1  0
M  RAD  1  21   3
M  END
>  <docking_score>  (2) 
-4.9539999999999997

$$$$

     RDKit          3D

 21 21  0  0  0  0  0  0  0  0999 V2000
  134.1554  127.0711  148.2098 Cl  0  0  0  0  0  0  0  0  0  0  0  0
  134.2289  127.1566  146.7140 C   0  0  0  0  0  0  0  0  0  0  0  0
  135.4493  127.7272  146.0545 C   0  0  0  0  0  0  0  0  0  0  0  0
  135.5228  127.8128  144.5588 C   0  0  0  0  0  0  0  0  0  0  0  0
  136.7236  128.4252  143.9007 N   0  0  0  0  0  0  0  0  0  0  0  0
  137.9088  128.4924  144.8175 C   0  0  0  0  0  0  0  0  0  0  0  0
  139.3188  128.9890  144.6936 N   0  0  0  0  0  0  0  0  0  0  0  0
  140.1275  129.6240  143.6016 N   0  0  0  0  0  0  0  0  0  0  0  0
  139.8613  130.0255  142.1811 N   0  0  0  0  0  0  0  0  0  0  0  0
  138.4513  129.5289  142.3050 C   0  0  0  0  0  0  0  0  0  0  0  0
  137.2661  129.4617  141.3882 C   0  0  0  0  0  0  0  0  0  0  0  0
  136.4573  128.8267  142.4802 C   0  0  0  0  0  0  0  0  0  0  0  0
  135.5217  128.9262  141.3119 C   0  0  0  0  0  0  0  0  0  0  0  0
  135.1643  128.2431  142.9676 O   0  0  0  0  0  0  0  0  0  0  0  0
  133.8898  129.0215  142.8266 C   0  0  0  0  0  0  0  0  0  0  0  0
  133.8441  130.4652  143.2309 C   0  0  0  0  0  0  0  0  0  0  0  0
  132.6610  128.3562  142.2812 C   0  0  0  0  0  0  0  0  0  0  0  0
  132.0976  127.1456  142.9645 C   0  0  0  0  0  0  0  0  0  0  0  0
  130.8688  126.4803  142.4191 S   0  0  0  0  0  0  0  0  0  0  0  0
  130.9964  125.4013  141.3851 O   0  0  0  0  0  0  0  0  0  0  0  0
  130.5815  125.6674  139.9682 C   0  0  0  0  0  2  0  0  0  0  0  0
  1  2  1  0
  2  3  2  3
  3  4  1  0
  4  5  1  0
  5  6  1  0
  6  7  1  0
  7  8  1  0
  8  9  1  0
  9 10  2  0
 10 11  1  0
 11 12  1  0
 12 13  1  0
 12 14  1  0
 14 15  1  0
 15 16  1  0
 15 17  1  0
 17 18  2  3
 18 19  1  0
 19 20  1  0
 20 21  1  0
 12  5  1  0
M  RAD  1  21   3
M  END
>  <docking_score>  (3) 
-4.8220000000000001

$$$$
