
     RDKit          3D

 25 26  0  0  0  0  0  0  0  0999 V2000
   17.4694   -3.3427   -6.1791 C   0  0  0  0  0  0  0  0  0  0  0  0
   17.1908   -2.1099   -6.9733 C   0  0  2  0  0  0  0  0  0  0  0  0
   17.6086   -0.9193   -6.1027 C   0  0  0  0  0  0  0  0  0  0  0  0
   15.7460   -1.9172   -7.3085 C   0  0  0  0  0  0  0  0  0  0  0  0
   15.2029   -2.9039   -8.2845 C   0  0  0  0  0  0  0  0  0  0  0  0
   15.0875   -4.2936   -7.7617 C   0  0  0  0  0  0  0  0  0  0  0  0
   14.5481   -4.3940   -6.3701 C   0  0  1  0  0  0  0  0  0  0  0  0
   13.4924   -5.4792   -6.2575 C   0  0  0  0  0  0  0  0  0  0  0  0
   15.7036   -4.8485   -5.4666 C   0  0  1  0  0  0  0  0  0  0  0  0
   16.5691   -5.7459   -6.3229 C   0  0  0  0  0  0  0  0  0  0  0  0
   17.8187   -6.1840   -5.6483 C   0  0  0  0  0  0  0  0  0  0  0  0
   18.1010   -7.6591   -5.8490 C   0  0  2  0  0  0  0  0  0  0  0  0
   16.9680   -8.4406   -5.2403 C   0  0  0  0  0  0  0  0  0  0  0  0
   19.3904   -7.9880   -5.1090 C   0  0  0  0  0  0  0  0  0  0  0  0
   20.2452   -6.7284   -5.1197 C   0  0  2  0  0  0  0  0  0  0  0  0
   21.2552   -6.8988   -6.2339 C   0  0  0  0  0  0  0  0  0  0  0  0
   20.9176   -6.4972   -3.7861 C   0  0  0  0  0  0  0  0  0  0  0  0
   20.9754   -5.0206   -3.4562 C   0  0  0  0  0  0  0  0  0  0  0  0
   19.7015   -4.5889   -2.7641 C   0  0  2  0  0  0  0  0  0  0  0  0
   19.9707   -4.0425   -1.3803 C   0  0  0  0  0  0  0  0  0  0  0  0
   18.8742   -5.7009   -2.6127 O   0  0  0  0  0  0  0  0  0  0  0  0
   18.8617   -3.3725   -3.8166 S   0  0  0  0  0  0  0  0  0  0  0  0
   17.0903   -3.6855   -3.7233 C   0  0  0  0  0  0  0  0  0  0  0  0
   16.4534   -3.5861   -5.0907 C   0  0  1  0  0  0  0  0  0  0  0  0
   15.4312   -2.4570   -5.0057 C   0  0  0  0  0  2  0  0  0  0  0  0
  1  2  1  0
  2  3  1  1
  2  4  1  0
  4  5  1  0
  5  6  1  0
  6  7  1  0
  7  8  1  6
  7  9  1  0
  9 10  1  6
 10 11  1  0
 11 12  1  0
 12 13  1  1
 12 14  1  0
 14 15  1  0
 15 16  1  6
 15 17  1  0
 17 18  1  0
 18 19  1  0
 19 20  1  1
 19 21  1  0
 19 22  1  0
 22 23  1  0
 23 24  1  0
 24 25  1  1
 24  1  1  0
 24  9  1  0
M  RAD  1  25   3
M  END
>  <docking_score>  (1) 
-5.9349999999999996

$$$$

     RDKit          3D

 25 26  0  0  0  0  0  0  0  0999 V2000
   17.0625   -4.3265   -6.2721 C   0  0  0  0  0  0  0  0  0  0  0  0
   16.3098   -4.2829   -7.5604 C   0  0  2  0  0  0  0  0  0  0  0  0
   15.0760   -3.4049   -7.3220 C   0  0  0  0  0  0  0  0  0  0  0  0
   15.8119   -5.6169   -8.0181 C   0  0  0  0  0  0  0  0  0  0  0  0
   16.8826   -6.5591   -8.4506 C   0  0  0  0  0  0  0  0  0  0  0  0
   17.7536   -7.0551   -7.3491 C   0  0  0  0  0  0  0  0  0  0  0  0
   17.0246   -7.4320   -6.0985 C   0  0  1  0  0  0  0  0  0  0  0  0
   17.5106   -8.7608   -5.5479 C   0  0  0  0  0  0  0  0  0  0  0  0
   17.3835   -6.3880   -5.0311 C   0  0  1  0  0  0  0  0  0  0  0  0
   18.8045   -5.9644   -5.3290 C   0  0  0  0  0  0  0  0  0  0  0  0
   19.2853   -4.8535   -4.4670 C   0  0  0  0  0  0  0  0  0  0  0  0
   20.6887   -5.0876   -3.9460 C   0  0  2  0  0  0  0  0  0  0  0  0
   20.6739   -6.3331   -3.1014 C   0  0  0  0  0  0  0  0  0  0  0  0
   21.0634   -3.8964   -3.0748 C   0  0  0  0  0  0  0  0  0  0  0  0
   20.3192   -2.6883   -3.6262 C   0  0  2  0  0  0  0  0  0  0  0  0
   21.3061   -1.9243   -4.4824 C   0  0  0  0  0  0  0  0  0  0  0  0
   19.7541   -1.8267   -2.5206 C   0  0  0  0  0  0  0  0  0  0  0  0
   18.4065   -1.2575   -2.9110 C   0  0  0  0  0  0  0  0  0  0  0  0
   17.3051   -2.2342   -2.5625 C   0  0  2  0  0  0  0  0  0  0  0  0
   16.3205   -1.6438   -1.5788 C   0  0  0  0  0  0  0  0  0  0  0  0
   17.8733   -3.3525   -1.9538 O   0  0  0  0  0  0  0  0  0  0  0  0
   16.4922   -2.7531   -4.0996 S   0  0  0  0  0  0  0  0  0  0  0  0
   16.1070   -4.5072   -3.9598 C   0  0  0  0  0  0  0  0  0  0  0  0
   16.4267   -5.2326   -5.2470 C   0  0  1  0  0  0  0  0  0  0  0  0
   15.1098   -5.8185   -5.7466 C   0  0  0  0  0  2  0  0  0  0  0  0
  1  2  1  0
  2  3  1  1
  2  4  1  0
  4  5  1  0
  5  6  1  0
  6  7  1  0
  7  8  1  1
  7  9  1  0
  9 10  1  6
 10 11  1  0
 11 12  1  0
 12 13  1  1
 12 14  1  0
 14 15  1  0
 15 16  1  1
 15 17  1  0
 17 18  1  0
 18 19  1  0
 19 20  1  1
 19 21  1  0
 19 22  1  0
 22 23  1  0
 23 24  1  0
 24 25  1  6
 24  1  1  0
 24  9  1  0
M  RAD  1  25   3
M  END
>  <docking_score>  (2) 
-5.5129999999999999

$$$$

     RDKit          3D

 25 26  0  0  0  0  0  0  0  0999 V2000
   18.2461   -3.6737   -3.6739 C   0  0  0  0  0  0  0  0  0  0  0  0
   18.7532   -3.8221   -2.2779 C   0  0  2  0  0  0  0  0  0  0  0  0
   17.5402   -4.1490   -1.3993 C   0  0  0  0  0  0  0  0  0  0  0  0
   19.3707   -2.5789   -1.7208 C   0  0  0  0  0  0  0  0  0  0  0  0
   20.6624   -2.1941   -2.3569 C   0  0  0  0  0  0  0  0  0  0  0  0
   20.5444   -1.7264   -3.7658 C   0  0  0  0  0  0  0  0  0  0  0  0
   19.3950   -0.8043   -4.0231 C   0  0  1  0  0  0  0  0  0  0  0  0
   19.8146    0.3908   -4.8602 C   0  0  0  0  0  0  0  0  0  0  0  0
   18.3797   -1.5723   -4.8818 C   0  0  1  0  0  0  0  0  0  0  0  0
   19.1950   -2.5002   -5.7545 C   0  0  0  0  0  0  0  0  0  0  0  0
   18.3675   -3.4249   -6.5722 C   0  0  0  0  0  0  0  0  0  0  0  0
   18.8525   -3.5270   -8.0040 C   0  0  2  0  0  0  0  0  0  0  0  0
   18.7504   -2.1633   -8.6323 C   0  0  0  0  0  0  0  0  0  0  0  0
   17.9269   -4.4872   -8.7386 C   0  0  0  0  0  0  0  0  0  0  0  0
   17.4174   -5.4893   -7.7122 C   0  0  2  0  0  0  0  0  0  0  0  0
   18.2594   -6.7372   -7.8687 C   0  0  0  0  0  0  0  0  0  0  0  0
   15.9460   -5.7808   -7.8974 C   0  0  0  0  0  0  0  0  0  0  0  0
   15.2567   -5.9641   -6.5618 C   0  0  0  0  0  0  0  0  0  0  0  0
   14.8099   -4.6261   -6.0156 C   0  0  2  0  0  0  0  0  0  0  0  0
   13.3114   -4.5691   -5.8236 C   0  0  0  0  0  0  0  0  0  0  0  0
   15.1443   -3.6322   -6.9344 O   0  0  0  0  0  0  0  0  0  0  0  0
   15.6997   -4.3143   -4.4652 S   0  0  0  0  0  0  0  0  0  0  0  0
   16.1198   -2.5636   -4.4078 C   0  0  0  0  0  0  0  0  0  0  0  0
   17.5323   -2.3653   -3.9070 C   0  0  1  0  0  0  0  0  0  0  0  0
   17.4211   -1.5436   -2.6266 C   0  0  0  0  0  2  0  0  0  0  0  0
  1  2  1  0
  2  3  1  1
  2  4  1  0
  4  5  1  0
  5  6  1  0
  6  7  1  0
  7  8  1  6
  7  9  1  0
  9 10  1  6
 10 11  1  0
 11 12  1  0
 12 13  1  6
 12 14  1  0
 14 15  1  0
 15 16  1  6
 15 17  1  0
 17 18  1  0
 18 19  1  0
 19 20  1  1
 19 21  1  0
 19 22  1  0
 22 23  1  0
 23 24  1  0
 24 25  1  1
 24  1  1  0
 24  9  1  0
M  RAD  1  25   3
M  END
>  <docking_score>  (3) 
-5.476

$$$$
