
     RDKit          3D

 27 28  0  0  0  0  0  0  0  0999 V2000
   19.0357   -1.0713   -2.5547 C   0  0  0  0  0  0  0  0  0  0  0  0
   17.9916   -2.1807   -2.6143 C   0  0  0  0  0  0  0  0  0  0  0  0
   16.6090   -1.6453   -2.3063 C   0  0  0  0  0  0  0  0  0  0  0  0
   18.0570   -2.7605   -4.0052 C   0  0  1  0  0  0  0  0  0  0  0  0
   18.6698   -1.7659   -4.9849 C   0  0  0  0  0  0  0  0  0  0  0  0
   17.6305   -0.9278   -5.6547 C   0  0  0  0  0  0  0  0  0  0  0  0
   16.3743   -1.6929   -6.0022 C   0  0  1  0  0  0  0  0  0  0  0  0
   15.1497   -0.8298   -5.7825 C   0  0  0  0  0  0  0  0  0  0  0  0
   16.4089   -2.1914   -7.4372 C   0  0  0  0  0  3  0  0  0  0  0  0
   15.1663   -2.9860   -7.6735 C   0  0  0  0  0  0  0  0  0  0  0  0
   15.4075   -4.4051   -8.0714 C   0  0  2  0  0  0  0  0  0  0  0  0
   14.6267   -5.4142   -7.3178 C   0  0  2  0  0  0  0  0  0  0  0  0
   13.1731   -5.3442   -7.7852 C   0  0  0  0  0  0  0  0  0  0  0  0
   14.6280   -5.2242   -5.8347 C   0  0  0  0  0  0  0  0  0  0  0  0
   15.5423   -6.2402   -5.1531 C   0  0  2  0  0  0  0  0  0  0  0  0
   14.7247   -7.4168   -4.6335 C   0  0  0  0  0  0  0  0  0  0  0  0
   16.1899   -5.5590   -3.9607 C   0  0  0  0  0  0  0  0  0  0  0  0
   17.5984   -6.0613   -3.8621 C   0  0  0  0  0  0  0  0  0  0  0  0
   18.4905   -5.0814   -3.1561 C   0  0  1  0  0  0  0  0  0  0  0  0
   19.5562   -5.8088   -2.6091 O   0  0  0  0  0  0  0  0  0  0  0  0
   18.9727   -3.9901   -4.0454 C   0  0  0  0  0  3  0  0  0  0  0  0
   19.1177   -4.3592   -5.4790 C   0  0  0  0  0  0  0  0  0  0  0  0
   19.7294   -5.6929   -5.7309 C   0  0  0  0  0  3  0  0  0  0  0  0
   19.4918   -6.0192   -7.0787 O   0  0  0  0  0  0  0  0  0  0  0  0
   18.9673   -4.9300   -7.7725 C   0  0  0  0  0  3  0  0  0  0  0  0
   17.5760   -4.5622   -7.2806 C   0  0  0  0  0  0  0  0  0  0  0  0
   16.7066   -4.7256   -8.3294 O   0  0  0  0  0  0  0  0  0  0  0  0
  1  2  1  0
  2  3  1  0
  4  2  1  1
  4  5  1  0
  5  6  1  0
  6  7  1  0
  7  8  1  6
  7  9  1  0
  9 10  1  0
 11 10  1  1
 11 12  1  0
 12 13  1  6
 12 14  1  0
 14 15  1  0
 15 16  1  1
 15 17  1  0
 17 18  1  0
 18 19  1  0
 19 20  1  6
 19 21  1  0
 21 22  1  0
 22 23  1  0
 23 24  1  0
 24 25  1  0
 25 26  1  0
 26 27  1  0
 21  4  1  0
 27 11  1  0
M  RAD  4   9   2  21   2  23   2  25   2
M  END
>  <docking_score>  (1) 
-6.8719999999999999

$$$$

     RDKit          3D

 27 28  0  0  0  0  0  0  0  0999 V2000
   18.4981   -8.3261   -6.5121 C   0  0  0  0  0  0  0  0  0  0  0  0
   18.5653   -6.8456   -6.8701 C   0  0  0  0  0  0  0  0  0  0  0  0
   17.8712   -6.5712   -8.1876 C   0  0  0  0  0  0  0  0  0  0  0  0
   17.9066   -6.0975   -5.7380 C   0  0  1  0  0  0  0  0  0  0  0  0
   16.8062   -6.9347   -5.0955 C   0  0  0  0  0  0  0  0  0  0  0  0
   15.4713   -6.6720   -5.7121 C   0  0  0  0  0  0  0  0  0  0  0  0
   15.2451   -5.2183   -6.0579 C   0  0  1  0  0  0  0  0  0  0  0  0
   14.4870   -5.0952   -7.3630 C   0  0  0  0  0  0  0  0  0  0  0  0
   14.4958   -4.4959   -4.9508 C   0  0  0  0  0  3  0  0  0  0  0  0
   14.3733   -3.0604   -5.3452 C   0  0  0  0  0  0  0  0  0  0  0  0
   14.9980   -2.1014   -4.3858 C   0  0  2  0  0  0  0  0  0  0  0  0
   15.8844   -1.0832   -4.9969 C   0  0  2  0  0  0  0  0  0  0  0  0
   15.0118   -0.0614   -5.7253 C   0  0  0  0  0  0  0  0  0  0  0  0
   16.8628   -1.6230   -5.9903 C   0  0  0  0  0  0  0  0  0  0  0  0
   18.2694   -1.6815   -5.3976 C   0  0  2  0  0  0  0  0  0  0  0  0
   19.0701   -0.4567   -5.8239 C   0  0  0  0  0  0  0  0  0  0  0  0
   18.9617   -2.9105   -5.9592 C   0  0  0  0  0  0  0  0  0  0  0  0
   19.8028   -3.4958   -4.8657 C   0  0  0  0  0  0  0  0  0  0  0  0
   20.0437   -4.9631   -5.0737 C   0  0  1  0  0  0  0  0  0  0  0  0
   21.2320   -5.2881   -4.4056 O   0  0  0  0  0  0  0  0  0  0  0  0
   18.9089   -5.8087   -4.6137 C   0  0  0  0  0  3  0  0  0  0  0  0
   18.1214   -5.2503   -3.4821 C   0  0  0  0  0  0  0  0  0  0  0  0
   18.9274   -4.6323   -2.3935 C   0  0  0  0  0  3  0  0  0  0  0  0
   18.0493   -3.8792   -1.5928 O   0  0  0  0  0  0  0  0  0  0  0  0
   16.7216   -4.1226   -1.9402 C   0  0  0  0  0  3  0  0  0  0  0  0
   16.3995   -3.6139   -3.3368 C   0  0  0  0  0  0  0  0  0  0  0  0
   15.4331   -2.6475   -3.2156 O   0  0  0  0  0  0  0  0  0  0  0  0
  1  2  1  0
  2  3  1  0
  4  2  1  6
  4  5  1  0
  5  6  1  0
  6  7  1  0
  7  8  1  6
  7  9  1  0
  9 10  1  0
 11 10  1  6
 11 12  1  0
 12 13  1  6
 12 14  1  0
 14 15  1  0
 15 16  1  6
 15 17  1  0
 17 18  1  0
 18 19  1  0
 19 20  1  1
 19 21  1  0
 21 22  1  0
 22 23  1  0
 23 24  1  0
 24 25  1  0
 25 26  1  0
 26 27  1  0
 21  4  1  0
 27 11  1  0
M  RAD  4   9   2  21   2  23   2  25   2
M  END
>  <docking_score>  (2) 
-6.1529999999999996

$$$$

     RDKit          3D

 27 28  0  0  0  0  0  0  0  0999 V2000
   20.8921   -6.3114   -7.3312 C   0  0  0  0  0  0  0  0  0  0  0  0
   20.4125   -5.3022   -6.2939 C   0  0  0  0  0  0  0  0  0  0  0  0
   21.0112   -3.9344   -6.5466 C   0  0  0  0  0  0  0  0  0  0  0  0
   18.9076   -5.2673   -6.3894 C   0  0  1  0  0  0  0  0  0  0  0  0
   18.4330   -5.7766   -7.7458 C   0  0  0  0  0  0  0  0  0  0  0  0
   18.2703   -4.6682   -8.7338 C   0  0  0  0  0  0  0  0  0  0  0  0
   17.6999   -3.4052   -8.1309 C   0  0  1  0  0  0  0  0  0  0  0  0
   18.3556   -2.1836   -8.7399 C   0  0  0  0  0  0  0  0  0  0  0  0
   16.1934   -3.3343   -8.3169 C   0  0  0  0  0  3  0  0  0  0  0  0
   15.7086   -2.0944   -7.6394 C   0  0  0  0  0  0  0  0  0  0  0  0
   14.7094   -2.3338   -6.5557 C   0  0  2  0  0  0  0  0  0  0  0  0
   14.9860   -1.6392   -5.2763 C   0  0  2  0  0  0  0  0  0  0  0  0
   14.6904   -0.1513   -5.4637 C   0  0  0  0  0  0  0  0  0  0  0  0
   16.3966   -1.7564   -4.7946 C   0  0  0  0  0  0  0  0  0  0  0  0
   16.4990   -2.7453   -3.6350 C   0  0  2  0  0  0  0  0  0  0  0  0
   16.4944   -1.9986   -2.3063 C   0  0  0  0  0  0  0  0  0  0  0  0
   17.8263   -3.4722   -3.7573 C   0  0  0  0  0  0  0  0  0  0  0  0
   17.6035   -4.8948   -3.3421 C   0  0  0  0  0  0  0  0  0  0  0  0
   18.6125   -5.8194   -3.9596 C   0  0  1  0  0  0  0  0  0  0  0  0
   18.7127   -6.9417   -3.1264 O   0  0  0  0  0  0  0  0  0  0  0  0
   18.2697   -6.2036   -5.3558 C   0  0  0  0  0  3  0  0  0  0  0  0
   16.8148   -6.2401   -5.6634 C   0  0  0  0  0  0  0  0  0  0  0  0
   15.9606   -6.8586   -4.6125 C   0  0  0  0  0  3  0  0  0  0  0  0
   14.6256   -6.5197   -4.8994 O   0  0  0  0  0  0  0  0  0  0  0  0
   14.5202   -5.9168   -6.1517 C   0  0  0  0  0  3  0  0  0  0  0  0
   15.2106   -4.5622   -6.1877 C   0  0  0  0  0  0  0  0  0  0  0  0
   14.2549   -3.6145   -6.4541 O   0  0  0  0  0  0  0  0  0  0  0  0
  1  2  1  0
  2  3  1  0
  4  2  1  6
  4  5  1  0
  5  6  1  0
  6  7  1  0
  7  8  1  6
  7  9  1  0
  9 10  1  0
 11 10  1  6
 11 12  1  0
 12 13  1  6
 12 14  1  0
 14 15  1  0
 15 16  1  1
 15 17  1  0
 17 18  1  0
 18 19  1  0
 19 20  1  1
 19 21  1  0
 21 22  1  0
 22 23  1  0
 23 24  1  0
 24 25  1  0
 25 26  1  0
 26 27  1  0
 21  4  1  0
 27 11  1  0
M  RAD  4   9   2  21   2  23   2  25   2
M  END
>  <docking_score>  (3) 
-5.9100000000000001

$$$$
