
     RDKit          3D

 22 24  0  0  0  0  0  0  0  0999 V2000
   15.9255   -1.9595   -3.3051 C   0  0  0  0  0  0  0  0  0  0  0  0
   15.5799   -0.8677   -4.1471 O   0  0  0  0  0  0  0  0  0  0  0  0
   14.2748   -0.6712   -4.5986 C   0  0  0  0  0  0  0  0  0  0  0  0
   13.6675   -1.7080   -5.1060 C   0  0  0  0  0  0  0  0  0  0  0  0
   14.2274   -3.0349   -5.2400 C   0  0  0  0  0  0  0  0  0  0  0  0
   15.3300   -3.4936   -5.0529 C   0  0  0  0  0  0  0  0  0  0  0  0
   16.4702   -4.2288   -4.9142 C   0  0  0  0  0  0  0  0  0  0  0  0
   16.8400   -5.5477   -5.4676 C   0  0  0  0  0  0  0  0  0  0  0  0
   17.2166   -5.6584   -6.8089 C   0  0  0  0  0  0  0  0  0  0  0  0
   17.5810   -6.8551   -7.3858 C   0  0  0  0  0  0  0  0  0  0  0  0
   17.5793   -8.0102   -6.6166 C   0  0  0  0  0  0  0  0  0  0  0  0
   18.0492   -9.5362   -7.3732 Cl  0  0  0  0  0  0  0  0  0  0  0  0
   17.2152   -7.9262   -5.3071 C   0  0  0  0  0  0  0  0  0  0  0  0
   16.8567   -6.7177   -4.7598 C   0  0  0  0  0  0  0  0  0  0  0  0
   17.4706   -3.7062   -4.1574 C   0  0  0  0  0  0  0  0  0  0  0  0
   18.6847   -4.4122   -3.9683 N   0  0  0  0  0  0  0  0  0  0  0  0
   19.8665   -4.1702   -4.7537 C   0  0  0  0  0  0  0  0  0  0  0  0
   17.3535   -2.3932   -3.4972 C   0  0  2  0  0  0  0  0  0  0  0  0
   18.2153   -2.2584   -2.2894 C   0  0  0  0  0  0  0  0  0  0  0  0
   19.3975   -1.3540   -2.4659 C   0  0  0  0  0  0  0  0  0  0  0  0
   19.9074   -0.6506   -1.2911 C   0  0  0  0  0  0  0  0  0  0  0  0
   20.6764   -1.5178   -1.9197 C   0  0  0  0  0  0  0  0  0  0  0  0
  1  2  1  0
  2  3  1  0
  3  4  2  3
  4  5  1  0
  5  6  2  3
  6  7  1  0
  7  8  1  0
  8  9  2  0
  9 10  1  0
 10 11  2  0
 11 12  1  0
 11 13  1  0
 13 14  2  0
  7 15  2  3
 15 16  1  0
 16 17  1  0
 15 18  1  0
 18 19  1  1
 19 20  1  0
 20 21  1  0
 21 22  2  0
 18  1  1  0
 14  8  1  0
 22 20  1  0
M  END
>  <docking_score>  (1) 
-4.6349999999999998

$$$$

     RDKit          3D

 22 24  0  0  0  0  0  0  0  0999 V2000
   16.7282   -2.1206   -3.9481 C   0  0  0  0  0  0  0  0  0  0  0  0
   16.9119   -2.0875   -2.5390 O   0  0  0  0  0  0  0  0  0  0  0  0
   18.1546   -1.8182   -1.9653 C   0  0  0  0  0  0  0  0  0  0  0  0
   19.1734   -2.4842   -2.4337 C   0  0  0  0  0  0  0  0  0  0  0  0
   19.1259   -3.4716   -3.4896 C   0  0  0  0  0  0  0  0  0  0  0  0
   18.2211   -3.9947   -4.0970 C   0  0  0  0  0  0  0  0  0  0  0  0
   17.3836   -4.7079   -4.9031 C   0  0  0  0  0  0  0  0  0  0  0  0
   17.6162   -5.9387   -5.6865 C   0  0  0  0  0  0  0  0  0  0  0  0
   17.6441   -7.1784   -5.0421 C   0  0  0  0  0  0  0  0  0  0  0  0
   17.8475   -8.3643   -5.7129 C   0  0  0  0  0  0  0  0  0  0  0  0
   18.0348   -8.3453   -7.0878 C   0  0  0  0  0  0  0  0  0  0  0  0
   18.2945   -9.8757   -7.9318 Cl  0  0  0  0  0  0  0  0  0  0  0  0
   18.0121   -7.1483   -7.7369 C   0  0  0  0  0  0  0  0  0  0  0  0
   17.8069   -5.9817   -7.0400 C   0  0  0  0  0  0  0  0  0  0  0  0
   16.1072   -4.2624   -5.0398 C   0  0  0  0  0  0  0  0  0  0  0  0
   15.1799   -4.9515   -5.8604 N   0  0  0  0  0  0  0  0  0  0  0  0
   14.2217   -5.8943   -5.3454 C   0  0  0  0  0  0  0  0  0  0  0  0
   15.6186   -3.0527   -4.3530 C   0  0  2  0  0  0  0  0  0  0  0  0
   14.4747   -2.3981   -5.0479 C   0  0  0  0  0  0  0  0  0  0  0  0
   14.8257   -1.1300   -5.7658 C   0  0  0  0  0  0  0  0  0  0  0  0
   13.7349   -0.2597   -6.1988 C   0  0  0  0  0  0  0  0  0  0  0  0
   14.6138    0.1804   -5.3200 C   0  0  0  0  0  0  0  0  0  0  0  0
  1  2  1  0
  2  3  1  0
  3  4  2  3
  4  5  1  0
  5  6  2  3
  6  7  1  0
  7  8  1  0
  8  9  2  0
  9 10  1  0
 10 11  2  0
 11 12  1  0
 11 13  1  0
 13 14  2  0
  7 15  2  3
 15 16  1  0
 16 17  1  0
 15 18  1  0
 18 19  1  6
 19 20  1  0
 20 21  1  0
 21 22  2  0
 18  1  1  0
 14  8  1  0
 22 20  1  0
M  END
>  <docking_score>  (2) 
-4.5940000000000003

$$$$

     RDKit          3D

 22 24  0  0  0  0  0  0  0  0999 V2000
   16.6015   -2.2228   -3.9649 C   0  0  0  0  0  0  0  0  0  0  0  0
   15.9544   -1.2173   -4.7335 O   0  0  0  0  0  0  0  0  0  0  0  0
   14.5644   -1.1360   -4.8175 C   0  0  0  0  0  0  0  0  0  0  0  0
   13.9274   -2.2422   -5.0847 C   0  0  0  0  0  0  0  0  0  0  0  0
   14.5342   -3.5374   -5.3001 C   0  0  0  0  0  0  0  0  0  0  0  0
   15.6793   -3.9112   -5.4008 C   0  0  0  0  0  0  0  0  0  0  0  0
   16.8695   -4.5614   -5.5443 C   0  0  0  0  0  0  0  0  0  0  0  0
   17.1799   -5.8903   -6.1104 C   0  0  0  0  0  0  0  0  0  0  0  0
   17.2848   -6.9988   -5.2659 C   0  0  0  0  0  0  0  0  0  0  0  0
   17.5631   -8.2662   -5.7284 C   0  0  0  0  0  0  0  0  0  0  0  0
   17.7505   -8.4688   -7.0884 C   0  0  0  0  0  0  0  0  0  0  0  0
   18.1069  -10.1009   -7.6639 Cl  0  0  0  0  0  0  0  0  0  0  0  0
   17.6535   -7.4028   -7.9303 C   0  0  0  0  0  0  0  0  0  0  0  0
   17.3745   -6.1500   -7.4389 C   0  0  0  0  0  0  0  0  0  0  0  0
   17.9924   -3.9246   -5.1199 C   0  0  0  0  0  0  0  0  0  0  0  0
   19.2647   -4.5374   -5.2368 N   0  0  0  0  0  0  0  0  0  0  0  0
   20.2259   -4.1700   -6.2435 C   0  0  0  0  0  0  0  0  0  0  0  0
   17.9539   -2.5781   -4.5205 C   0  0  2  0  0  0  0  0  0  0  0  0
   19.0971   -2.3042   -3.6052 C   0  0  0  0  0  0  0  0  0  0  0  0
   18.8419   -2.6503   -2.1694 C   0  0  0  0  0  0  0  0  0  0  0  0
   19.3911   -3.9029   -1.6552 C   0  0  0  0  0  0  0  0  0  0  0  0
   19.7893   -2.7548   -1.1436 C   0  0  0  0  0  0  0  0  0  0  0  0
  1  2  1  0
  2  3  1  0
  3  4  2  3
  4  5  1  0
  5  6  2  3
  6  7  1  0
  7  8  1  0
  8  9  2  0
  9 10  1  0
 10 11  2  0
 11 12  1  0
 11 13  1  0
 13 14  2  0
  7 15  2  3
 15 16  1  0
 16 17  1  0
 15 18  1  0
 18 19  1  1
 19 20  1  0
 20 21  1  0
 21 22  2  0
 18  1  1  0
 14  8  1  0
 22 20  1  0
M  END
>  <docking_score>  (3) 
-4.3730000000000002

$$$$
