
     RDKit          3D

 29 29  0  0  0  0  0  0  0  0999 V2000
   18.9225   -1.2335   -6.2669 O   0  0  0  0  0  0  0  0  0  0  0  0
   19.7577   -0.5165   -5.6663 C   0  0  0  0  0  0  0  0  0  0  0  0
   20.7914    0.0606   -6.3524 O   0  0  0  0  0  0  0  0  0  0  0  0
   19.6240   -0.2981   -4.2285 C   0  0  0  0  0  0  0  0  0  0  0  0
   20.6513   -0.4682   -3.4024 C   0  0  0  0  0  0  0  0  0  0  0  0
   20.4162   -0.2266   -1.9961 C   0  0  0  0  0  0  0  0  0  0  0  0
   20.2473   -1.1380   -1.0816 C   0  0  0  0  0  0  0  0  0  0  0  0
   20.2719   -2.5725   -1.3533 C   0  0  0  0  0  0  0  0  0  0  0  0
   19.2207   -3.2491   -1.7098 C   0  0  0  0  0  0  0  0  0  0  0  0
   19.2223   -4.6181   -1.9738 N   0  0  0  0  0  0  0  0  0  0  0  0
   19.3314   -5.1308   -3.1680 C   0  0  0  0  0  0  0  0  0  0  0  0
   19.3320   -6.4715   -3.4176 O   0  0  0  0  0  0  0  0  0  0  0  0
   18.7088   -7.0864   -4.4740 N   0  0  0  0  0  0  0  0  0  0  0  0
   17.8255   -6.2274   -5.1923 C   0  0  0  0  0  0  0  0  0  0  0  0
   19.4596   -4.2130   -4.2955 C   0  0  0  0  0  0  0  0  0  0  0  0
   20.1814   -4.4858   -5.3690 C   0  0  0  0  0  0  0  0  0  0  0  0
   20.9196   -5.7253   -5.5357 C   0  0  0  0  0  0  0  0  0  0  0  0
   20.4679   -6.6638   -6.3307 C   0  0  0  0  0  0  0  0  0  0  0  0
   19.2608   -6.6155   -7.1038 C   0  0  0  0  0  0  0  0  0  0  0  0
   18.0489   -6.4223   -6.6413 C   0  0  0  0  0  0  0  0  0  0  0  0
   16.8841   -6.3934   -7.5396 C   0  0  0  0  0  0  0  0  0  0  0  0
   15.9476   -5.3001   -7.2425 C   0  0  0  0  0  0  0  0  0  0  0  0
   16.2291   -4.3824   -6.3581 C   0  0  0  0  0  0  0  0  0  0  0  0
   15.2739   -3.3306   -6.1046 C   0  0  0  0  0  0  0  0  0  0  0  0
   14.2119   -3.4540   -5.3580 C   0  0  0  0  0  0  0  0  0  0  0  0
   13.3078   -2.3506   -5.1569 C   0  0  0  0  0  0  0  0  0  0  0  0
   13.7811   -1.1553   -4.8919 C   0  0  0  0  0  0  0  0  0  0  0  0
   14.1803    0.0794   -4.7733 C   0  0  0  0  0  0  0  0  0  0  0  0
   15.2825    0.5504   -5.6480 C   0  0  0  0  0  0  0  0  0  0  0  0
  1  2  2  0
  2  3  1  0
  2  4  1  0
  4  5  2  3
  5  6  1  0
  6  7  2  3
  7  8  1  0
  8  9  2  3
  9 10  1  0
 10 11  2  3
 11 12  1  0
 12 13  1  0
 13 14  1  0
 11 15  1  0
 15 16  2  3
 16 17  1  0
 17 18  2  3
 18 19  1  0
 19 20  2  3
 20 21  1  0
 21 22  1  0
 22 23  2  3
 23 24  1  0
 24 25  2  3
 25 26  1  0
 26 27  2  0
 27 28  2  0
 28 29  1  0
 20 14  1  0
M  END
>  <docking_score>  (1) 
-3.8039999999999998

$$$$

     RDKit          3D

 29 29  0  0  0  0  0  0  0  0999 V2000
    3.5047   13.1225    9.0502 O   0  0  0  0  0  0  0  0  0  0  0  0
    4.1731   12.8379   10.0721 C   0  0  0  0  0  0  0  0  0  0  0  0
    4.5975   13.8273   10.9166 O   0  0  0  0  0  0  0  0  0  0  0  0
    4.4984   11.4435   10.3600 C   0  0  0  0  0  0  0  0  0  0  0  0
    3.7178   10.4496    9.9481 C   0  0  0  0  0  0  0  0  0  0  0  0
    4.1274    9.1041   10.2842 C   0  0  0  0  0  0  0  0  0  0  0  0
    4.0500    8.0641    9.5044 C   0  0  0  0  0  0  0  0  0  0  0  0
    3.5243    8.1098    8.1429 C   0  0  0  0  0  0  0  0  0  0  0  0
    3.1290    7.0544    7.4951 C   0  0  0  0  0  0  0  0  0  0  0  0
    2.6242    7.0758    6.1956 N   0  0  0  0  0  0  0  0  0  0  0  0
    3.0977    7.8282    5.2412 C   0  0  0  0  0  0  0  0  0  0  0  0
    2.5979    7.8432    3.9725 O   0  0  0  0  0  0  0  0  0  0  0  0
    2.4368    8.9599    3.1918 N   0  0  0  0  0  0  0  0  0  0  0  0
    2.6095   10.1828    3.9050 C   0  0  0  0  0  0  0  0  0  0  0  0
    4.2251    8.7001    5.5554 C   0  0  0  0  0  0  0  0  0  0  0  0
    5.1762    8.9914    4.6844 C   0  0  0  0  0  0  0  0  0  0  0  0
    5.1959    8.4740    3.3276 C   0  0  0  0  0  0  0  0  0  0  0  0
    4.8618    9.2425    2.3204 C   0  0  0  0  0  0  0  0  0  0  0  0
    4.4539   10.6155    2.3967 C   0  0  0  0  0  0  0  0  0  0  0  0
    3.4496   11.0903    3.0937 C   0  0  0  0  0  0  0  0  0  0  0  0
    3.1292   12.5261    3.0913 C   0  0  0  0  0  0  0  0  0  0  0  0
    4.3167   13.3871    3.1883 C   0  0  0  0  0  0  0  0  0  0  0  0
    4.6729   13.9324    4.3193 C   0  0  0  0  0  0  0  0  0  0  0  0
    5.8478   14.7698    4.3594 C   0  0  0  0  0  0  0  0  0  0  0  0
    6.4614   15.2416    3.3099 C   0  0  0  0  0  0  0  0  0  0  0  0
    7.6312   16.0724    3.4391 C   0  0  0  0  0  0  0  0  0  0  0  0
    8.6333   15.6809    4.1911 C   0  0  0  0  0  0  0  0  0  0  0  0
    9.7193   15.2916    4.7969 C   0  0  0  0  0  0  0  0  0  0  0  0
   10.1760   13.8942    4.5951 C   0  0  0  0  0  0  0  0  0  0  0  0
  1  2  2  0
  2  3  1  0
  2  4  1  0
  4  5  2  3
  5  6  1  0
  6  7  2  3
  7  8  1  0
  8  9  2  3
  9 10  1  0
 10 11  2  3
 11 12  1  0
 12 13  1  0
 13 14  1  0
 11 15  1  0
 15 16  2  3
 16 17  1  0
 17 18  2  3
 18 19  1  0
 19 20  2  3
 20 21  1  0
 21 22  1  0
 22 23  2  3
 23 24  1  0
 24 25  2  3
 25 26  1  0
 26 27  2  0
 27 28  2  0
 28 29  1  0
 20 14  1  0
M  END
>  <docking_score>  (2) 
-3.4300000000000002

$$$$

     RDKit          3D

 29 29  0  0  0  0  0  0  0  0999 V2000
    2.2704    6.3674    1.4304 O   0  0  0  0  0  0  0  0  0  0  0  0
    2.5676    7.3447    2.1575 C   0  0  0  0  0  0  0  0  0  0  0  0
    2.2614    8.6180    1.7610 O   0  0  0  0  0  0  0  0  0  0  0  0
    3.2434    7.1201    3.4326 C   0  0  0  0  0  0  0  0  0  0  0  0
    4.5651    7.2080    3.5423 C   0  0  0  0  0  0  0  0  0  0  0  0
    5.1377    6.9679    4.8484 C   0  0  0  0  0  0  0  0  0  0  0  0
    5.2957    7.8547    5.7886 C   0  0  0  0  0  0  0  0  0  0  0  0
    4.9067    9.2557    5.6545 C   0  0  0  0  0  0  0  0  0  0  0  0
    3.6858    9.6381    5.4244 C   0  0  0  0  0  0  0  0  0  0  0  0
    3.2931   10.9695    5.2929 N   0  0  0  0  0  0  0  0  0  0  0  0
    4.1245   11.9663    5.1659 C   0  0  0  0  0  0  0  0  0  0  0  0
    3.7320   13.2660    5.0378 O   0  0  0  0  0  0  0  0  0  0  0  0
    4.3428   14.3452    5.6250 N   0  0  0  0  0  0  0  0  0  0  0  0
    5.3104   13.9858    6.6092 C   0  0  0  0  0  0  0  0  0  0  0  0
    5.5529   11.6670    5.1611 C   0  0  0  0  0  0  0  0  0  0  0  0
    6.4304   12.3494    4.4452 C   0  0  0  0  0  0  0  0  0  0  0  0
    6.0627   13.4652    3.5916 C   0  0  0  0  0  0  0  0  0  0  0  0
    6.3058   14.6963    3.9686 C   0  0  0  0  0  0  0  0  0  0  0  0
    6.9279   15.1031    5.1952 C   0  0  0  0  0  0  0  0  0  0  0  0
    6.5212   14.8109    6.4073 C   0  0  0  0  0  0  0  0  0  0  0  0
    7.2484   15.2894    7.5932 C   0  0  0  0  0  0  0  0  0  0  0  0
    6.3843   15.4827    8.7665 C   0  0  0  0  0  0  0  0  0  0  0  0
    5.8688   14.4696    9.4080 C   0  0  0  0  0  0  0  0  0  0  0  0
    5.0269   14.7152   10.5543 C   0  0  0  0  0  0  0  0  0  0  0  0
    3.9337   14.0595   10.8288 C   0  0  0  0  0  0  0  0  0  0  0  0
    3.1499   14.3695   11.9971 C   0  0  0  0  0  0  0  0  0  0  0  0
    3.5261   13.9283   13.1747 C   0  0  0  0  0  0  0  0  0  0  0  0
    3.9156   13.6515   14.3869 C   0  0  0  0  0  0  0  0  0  0  0  0
    5.3441   13.8571   14.7319 C   0  0  0  0  0  0  0  0  0  0  0  0
  1  2  2  0
  2  3  1  0
  2  4  1  0
  4  5  2  3
  5  6  1  0
  6  7  2  3
  7  8  1  0
  8  9  2  3
  9 10  1  0
 10 11  2  3
 11 12  1  0
 12 13  1  0
 13 14  1  0
 11 15  1  0
 15 16  2  3
 16 17  1  0
 17 18  2  3
 18 19  1  0
 19 20  2  3
 20 21  1  0
 21 22  1  0
 22 23  2  3
 23 24  1  0
 24 25  2  3
 25 26  1  0
 26 27  2  0
 27 28  2  0
 28 29  1  0
 20 14  1  0
M  END
>  <docking_score>  (3) 
-0.94199999999999995

$$$$
