
     RDKit          3D

 28 29  0  0  0  0  0  0  0  0999 V2000
    5.2360   10.6389    2.5898 C   0  0  0  0  0  0  0  0  0  0  0  0
    3.9308   10.1352    2.0793 C   0  0  2  0  0  0  0  0  0  0  0  0
    2.8550   11.1609    1.9815 C   0  0  0  0  0  0  0  0  0  0  0  0
    3.4807    8.8437    2.6914 C   0  0  0  0  0  0  0  0  0  0  0  0
    2.8516    8.9944    4.0392 C   0  0  0  0  0  0  0  0  0  0  0  0
    3.8019    8.5611    5.1274 C   0  0  0  0  0  0  0  0  0  0  0  0
    3.2350    7.3804    5.8909 C   0  0  1  0  0  0  0  0  0  0  0  0
    4.1235    6.1637    5.6813 C   0  0  0  0  0  0  0  0  0  0  0  0
    3.1561    7.7053    7.3502 C   0  0  0  0  0  3  0  0  0  0  0  0
    4.2087    8.6793    7.7729 C   0  0  0  0  0  0  0  0  0  0  0  0
    4.2592    8.6972    9.2857 C   0  0  0  0  0  0  0  0  0  0  0  0
    3.7494   10.0543    9.7383 C   0  0  0  0  0  0  0  0  0  0  0  0
    4.4372   10.4767   11.0334 C   0  0  0  0  0  0  0  0  0  0  0  0
    2.2576    9.9485   10.0299 C   0  0  0  0  0  0  0  0  0  0  0  0
    3.9576   11.0908    8.6923 C   0  0  0  0  0  0  0  0  0  0  0  0
    4.7704   12.1288    8.8677 C   0  0  0  0  0  0  0  0  0  0  0  0
    4.9632   13.1421    7.8232 C   0  0  0  0  0  0  0  0  0  0  0  0
    4.0014   12.9830    6.6829 C   0  0  0  0  0  0  0  0  0  0  0  0
    4.6955   13.2062    5.3554 C   0  0  2  0  0  0  0  0  0  0  0  0
    4.3476   12.0249    4.4720 C   0  0  0  0  0  0  0  0  0  0  0  0
    6.4696   13.3340    5.6642 S   0  0  0  0  0  0  0  0  0  0  0  0
    7.2486   14.5842    4.6099 C   0  0  0  0  0  0  0  0  0  0  0  0
    7.9772   13.9289    3.4344 C   0  0  1  0  0  0  0  0  0  0  0  0
    8.8291   12.8067    4.0423 C   0  0  0  0  0  0  0  0  0  0  0  0
    6.9664   13.2684    2.7009 O   0  0  0  0  0  0  0  0  0  0  0  0
    6.4492   12.3963    3.5154 O   0  0  0  0  0  0  0  0  0  0  0  0
    5.1516   12.0247    3.1887 C   0  0  1  0  0  0  0  0  0  0  0  0
    4.5005   13.0142    2.2348 C   0  0  0  0  0  2  0  0  0  0  0  0
  1  2  1  0
  2  3  1  1
  2  4  1  0
  4  5  1  0
  5  6  1  0
  6  7  1  0
  7  8  1  1
  7  9  1  0
  9 10  1  0
 10 11  1  0
 11 12  1  0
 12 13  1  0
 12 14  1  0
 12 15  1  0
 15 16  2  3
 16 17  1  0
 17 18  1  0
 19 18  1  1
 19 20  1  0
 19 21  1  0
 21 22  1  0
 22 23  1  0
 23 24  1  1
 23 25  1  0
 25 26  1  0
 26 27  1  0
 27 28  1  6
 27  1  1  0
 27 20  1  0
M  RAD  2   9   2  28   3
M  END
>  <docking_score>  (1) 
-5.258

$$$$

     RDKit          3D

 28 29  0  0  0  0  0  0  0  0999 V2000
    7.6399   11.8933    2.6912 C   0  0  0  0  0  0  0  0  0  0  0  0
    6.5404   11.3506    1.8459 C   0  0  2  0  0  0  0  0  0  0  0  0
    5.6735   12.3783    1.2046 C   0  0  0  0  0  0  0  0  0  0  0  0
    5.7788   10.2199    2.4675 C   0  0  0  0  0  0  0  0  0  0  0  0
    4.7491   10.6521    3.4615 C   0  0  0  0  0  0  0  0  0  0  0  0
    5.2241   10.4014    4.8710 C   0  0  0  0  0  0  0  0  0  0  0  0
    4.3132    9.4130    5.5723 C   0  0  1  0  0  0  0  0  0  0  0  0
    5.0896    8.1458    5.8966 C   0  0  0  0  0  0  0  0  0  0  0  0
    3.7783   10.0167    6.8336 C   0  0  0  0  0  3  0  0  0  0  0  0
    4.7197   11.0131    7.4302 C   0  0  0  0  0  0  0  0  0  0  0  0
    4.2559   11.3211    8.8379 C   0  0  0  0  0  0  0  0  0  0  0  0
    3.7659   12.7586    8.8472 C   0  0  0  0  0  0  0  0  0  0  0  0
    4.0136   13.3967   10.2111 C   0  0  0  0  0  0  0  0  0  0  0  0
    2.2611   12.7681    8.6078 C   0  0  0  0  0  0  0  0  0  0  0  0
    4.4222   13.5646    7.7836 C   0  0  0  0  0  0  0  0  0  0  0  0
    5.2299   14.5852    8.0572 C   0  0  0  0  0  0  0  0  0  0  0  0
    5.8689   15.3694    6.9935 C   0  0  0  0  0  0  0  0  0  0  0  0
    5.3396   15.0297    5.6314 C   0  0  0  0  0  0  0  0  0  0  0  0
    6.4618   14.9655    4.6162 C   0  0  2  0  0  0  0  0  0  0  0  0
    6.3141   13.6499    3.8786 C   0  0  0  0  0  0  0  0  0  0  0  0
    8.0293   15.0828    5.5042 S   0  0  0  0  0  0  0  0  0  0  0  0
    9.2442   16.0750    4.5983 C   0  0  0  0  0  0  0  0  0  0  0  0
   10.2564   15.1775    3.8826 C   0  0  1  0  0  0  0  0  0  0  0  0
   10.7311   14.1623    4.9308 C   0  0  0  0  0  0  0  0  0  0  0  0
    9.4918   14.4268    2.9620 O   0  0  0  0  0  0  0  0  0  0  0  0
    8.6419   13.7489    3.6760 O   0  0  0  0  0  0  0  0  0  0  0  0
    7.5009   13.3709    2.9804 C   0  0  1  0  0  0  0  0  0  0  0  0
    7.3177   14.1814    1.7066 C   0  0  0  0  0  2  0  0  0  0  0  0
  1  2  1  0
  2  3  1  1
  2  4  1  0
  4  5  1  0
  5  6  1  0
  6  7  1  0
  7  8  1  1
  7  9  1  0
  9 10  1  0
 10 11  1  0
 11 12  1  0
 12 13  1  0
 12 14  1  0
 12 15  1  0
 15 16  2  3
 16 17  1  0
 17 18  1  0
 19 18  1  1
 19 20  1  0
 19 21  1  0
 21 22  1  0
 22 23  1  0
 23 24  1  1
 23 25  1  0
 25 26  1  0
 26 27  1  0
 27 28  1  6
 27  1  1  0
 27 20  1  0
M  RAD  2   9   2  28   3
M  END
>  <docking_score>  (2) 
-5.0970000000000004

$$$$

     RDKit          3D

 28 29  0  0  0  0  0  0  0  0999 V2000
    5.2593   13.0940    9.4452 C   0  0  0  0  0  0  0  0  0  0  0  0
    4.6695   14.2558    8.7240 C   0  0  2  0  0  0  0  0  0  0  0  0
    3.1911   14.3891    8.8481 C   0  0  0  0  0  0  0  0  0  0  0  0
    5.1783   14.4437    7.3273 C   0  0  0  0  0  0  0  0  0  0  0  0
    4.5394   13.5429    6.3195 C   0  0  0  0  0  0  0  0  0  0  0  0
    5.4701   12.4196    5.9361 C   0  0  0  0  0  0  0  0  0  0  0  0
    5.8097   12.4892    4.4602 C   0  0  1  0  0  0  0  0  0  0  0  0
    7.2968   12.7608    4.2916 C   0  0  0  0  0  0  0  0  0  0  0  0
    5.4510   11.1986    3.7916 C   0  0  0  0  0  3  0  0  0  0  0  0
    5.5420   10.0322    4.7223 C   0  0  0  0  0  0  0  0  0  0  0  0
    5.4831    8.7626    3.9000 C   0  0  0  0  0  0  0  0  0  0  0  0
    4.1656    8.0782    4.2204 C   0  0  0  0  0  0  0  0  0  0  0  0
    4.3134    6.5630    4.1151 C   0  0  0  0  0  0  0  0  0  0  0  0
    3.1252    8.5057    3.1925 C   0  0  0  0  0  0  0  0  0  0  0  0
    3.6758    8.4469    5.5753 C   0  0  0  0  0  0  0  0  0  0  0  0
    3.5611    7.5591    6.5590 C   0  0  0  0  0  0  0  0  0  0  0  0
    3.0755    7.9421    7.8903 C   0  0  0  0  0  0  0  0  0  0  0  0
    2.5399    9.3429    7.9262 C   0  0  0  0  0  0  0  0  0  0  0  0
    2.9725   10.0546    9.1913 C   0  0  2  0  0  0  0  0  0  0  0  0
    3.5649   11.3839    8.7686 C   0  0  0  0  0  0  0  0  0  0  0  0
    4.1722    9.0075   10.0420 S   0  0  0  0  0  0  0  0  0  0  0  0
    3.9575    9.0605   11.8399 C   0  0  0  0  0  0  0  0  0  0  0  0
    5.0012    9.9740   12.4868 C   0  0  1  0  0  0  0  0  0  0  0  0
    6.3521    9.5535   11.8928 C   0  0  0  0  0  0  0  0  0  0  0  0
    4.7461   11.2562   11.9513 O   0  0  0  0  0  0  0  0  0  0  0  0
    4.9107   11.1434   10.6662 O   0  0  0  0  0  0  0  0  0  0  0  0
    4.2269   12.0999    9.9272 C   0  0  1  0  0  0  0  0  0  0  0  0
    3.1325   12.7717   10.7420 C   0  0  0  0  0  2  0  0  0  0  0  0
  1  2  1  0
  2  3  1  6
  2  4  1  0
  4  5  1  0
  5  6  1  0
  6  7  1  0
  7  8  1  1
  7  9  1  0
  9 10  1  0
 10 11  1  0
 11 12  1  0
 12 13  1  0
 12 14  1  0
 12 15  1  0
 15 16  2  3
 16 17  1  0
 17 18  1  0
 19 18  1  6
 19 20  1  0
 19 21  1  0
 21 22  1  0
 22 23  1  0
 23 24  1  6
 23 25  1  0
 25 26  1  0
 26 27  1  0
 27 28  1  1
 27  1  1  0
 27 20  1  0
M  RAD  2   9   2  28   3
M  END
>  <docking_score>  (3) 
-4.8399999999999999

$$$$
