
     RDKit          3D

 33 33  0  0  0  0  0  0  0  0999 V2000
   13.8561   -4.1867   -8.1437 C   0  0  0  0  0  0  0  0  0  0  0  0
   14.8230   -3.4128   -7.4738 O   0  0  0  0  0  0  0  0  0  0  0  0
   14.9474   -2.2083   -8.2017 C   0  0  0  0  0  3  0  0  0  0  0  0
   15.4448   -1.2155   -7.3557 O   0  0  0  0  0  0  0  0  0  0  0  0
   15.1463   -1.4861   -6.0375 C   0  0  0  0  0  0  0  0  0  0  0  0
   16.4396   -1.4814   -5.2493 C   0  0  0  0  0  0  0  0  0  0  0  0
   16.1957   -2.2094   -3.9484 C   0  0  0  0  0  0  0  0  0  0  0  0
   17.2164   -3.3049   -3.7788 C   0  0  2  0  0  0  0  0  0  0  0  0
   18.4062   -2.8605   -2.9868 C   0  0  1  0  0  0  0  0  0  0  0  0
   19.5965   -2.8076   -3.9254 C   0  0  0  0  0  3  0  0  0  0  0  0
   18.9856   -2.9781   -5.3006 C   0  0  0  0  0  0  0  0  0  0  0  0
   17.7527   -3.7973   -5.0972 C   0  0  2  0  0  0  0  0  0  0  0  0
   16.8142   -3.6257   -6.1103 O   0  0  0  0  0  0  0  0  0  0  0  0
   18.0960   -5.2726   -4.9822 C   0  0  0  0  0  0  0  0  0  0  0  0
   18.7531   -5.7444   -6.2622 C   0  0  0  0  0  0  0  0  0  0  0  0
   19.8309   -4.9111   -6.5488 O   0  0  0  0  0  0  0  0  0  0  0  0
   20.3497   -5.2371   -7.7058 O   0  0  0  0  0  0  0  0  0  0  0  0
   19.9258   -6.5271   -8.0182 C   0  0  0  0  0  3  0  0  0  0  0  0
   20.4329   -7.4489   -7.1092 O   0  0  0  0  0  0  0  0  0  0  0  0
   19.4979   -8.4347   -6.8095 C   0  0  0  0  0  3  0  0  0  0  0  0
   19.1200   -8.3031   -5.3483 C   0  0  2  0  0  0  0  0  0  0  0  0
   20.1622   -8.8412   -4.4261 C   0  0  0  0  0  0  0  0  0  0  0  0
   20.2972   -8.0809   -3.2641 O   0  0  0  0  0  0  0  0  0  0  0  0
   20.0523   -6.8185   -3.4810 O   0  0  0  0  0  0  0  0  0  0  0  0
   21.1217   -6.0737   -3.5458 O   0  0  0  0  0  0  0  0  0  0  0  0
   17.7612   -8.9140   -5.1565 C   0  0  0  0  0  3  0  0  0  0  0  0
   16.8046   -8.1543   -5.8005 O   0  0  0  0  0  0  0  0  0  0  0  0
   16.1367   -7.2809   -4.9674 C   0  0  0  0  0  0  0  0  0  0  0  0
   14.6943   -7.0873   -5.3506 C   0  0  0  0  0  2  0  0  0  0  0  0
   18.1468   -1.5973   -2.4648 O   0  0  0  0  0  0  0  0  0  0  0  0
   18.8974   -1.3103   -1.3287 C   0  0  0  0  0  0  0  0  0  0  0  0
   19.7364   -0.0992   -1.6178 C   0  0  0  0  0  0  0  0  0  0  0  0
   20.8991   -0.0636   -0.8152 O   0  0  0  0  0  0  0  0  0  0  0  0
  1  2  1  0
  2  3  1  0
  3  4  1  0
  4  5  1  0
  5  6  1  0
  6  7  1  0
  8  7  1  6
  8  9  1  0
  9 10  1  0
 10 11  1  0
 11 12  1  0
 12 13  1  6
 12 14  1  0
 14 15  1  0
 15 16  1  0
 16 17  1  0
 17 18  1  0
 18 19  1  0
 19 20  1  0
 21 20  1  6
 21 22  1  0
 22 23  1  0
 23 24  1  0
 24 25  1  0
 21 26  1  0
 26 27  1  0
 27 28  1  0
 28 29  1  0
  9 30  1  6
 30 31  1  0
 31 32  1  0
 32 33  1  0
 12  8  1  0
M  RAD  6   3   2  10   2  18   2  20   2  26   2  29   3
M  END
>  <docking_score>  (1) 
-1.0209999999999999

$$$$

     RDKit          3D

 33 33  0  0  0  0  0  0  0  0999 V2000
   21.3815   -9.2945   -2.9729 C   0  0  0  0  0  0  0  0  0  0  0  0
   21.3532   -9.1073   -4.3682 O   0  0  0  0  0  0  0  0  0  0  0  0
   20.2741   -8.2351   -4.6342 C   0  0  0  0  0  3  0  0  0  0  0  0
   20.7643   -6.9356   -4.7755 O   0  0  0  0  0  0  0  0  0  0  0  0
   20.7176   -6.2509   -3.5801 C   0  0  0  0  0  0  0  0  0  0  0  0
   19.3798   -6.5304   -2.9272 C   0  0  0  0  0  0  0  0  0  0  0  0
   18.3489   -6.6791   -4.0212 C   0  0  0  0  0  0  0  0  0  0  0  0
   17.4660   -5.4585   -4.0581 C   0  0  2  0  0  0  0  0  0  0  0  0
   17.8258   -4.5257   -5.1720 C   0  0  1  0  0  0  0  0  0  0  0  0
   18.4084   -3.2682   -4.5560 C   0  0  0  0  0  3  0  0  0  0  0  0
   18.6039   -3.6316   -3.0989 C   0  0  0  0  0  0  0  0  0  0  0  0
   17.5541   -4.6492   -2.7910 C   0  0  2  0  0  0  0  0  0  0  0  0
   17.8834   -5.4577   -1.7073 O   0  0  0  0  0  0  0  0  0  0  0  0
   16.2154   -3.9823   -2.5250 C   0  0  0  0  0  0  0  0  0  0  0  0
   16.0060   -2.8496   -3.5078 C   0  0  0  0  0  0  0  0  0  0  0  0
   14.6700   -2.8342   -3.8993 O   0  0  0  0  0  0  0  0  0  0  0  0
   14.4943   -3.6439   -4.9130 O   0  0  0  0  0  0  0  0  0  0  0  0
   15.5071   -3.3995   -5.8381 C   0  0  0  0  0  3  0  0  0  0  0  0
   14.9849   -2.8864   -7.0202 O   0  0  0  0  0  0  0  0  0  0  0  0
   15.5501   -1.6541   -7.3331 C   0  0  0  0  0  3  0  0  0  0  0  0
   15.6847   -0.8542   -6.0535 C   0  0  2  0  0  0  0  0  0  0  0  0
   14.5187    0.0418   -5.8010 C   0  0  0  0  0  0  0  0  0  0  0  0
   14.2239    0.1719   -4.4436 O   0  0  0  0  0  0  0  0  0  0  0  0
   12.9399    0.1237   -4.2209 O   0  0  0  0  0  0  0  0  0  0  0  0
   12.3642   -0.9598   -4.6651 O   0  0  0  0  0  0  0  0  0  0  0  0
   17.0070   -0.1420   -6.0805 C   0  0  0  0  0  3  0  0  0  0  0  0
   18.0364   -1.0469   -5.9117 O   0  0  0  0  0  0  0  0  0  0  0  0
   19.2807   -0.5343   -6.2148 C   0  0  0  0  0  0  0  0  0  0  0  0
   19.7588    0.4834   -5.2146 C   0  0  0  0  0  2  0  0  0  0  0  0
   18.7689   -5.1463   -5.9851 O   0  0  0  0  0  0  0  0  0  0  0  0
   19.5677   -4.2451   -6.6824 C   0  0  0  0  0  0  0  0  0  0  0  0
   20.2861   -4.9989   -7.7640 C   0  0  0  0  0  0  0  0  0  0  0  0
   21.3825   -4.2668   -8.2731 O   0  0  0  0  0  0  0  0  0  0  0  0
  1  2  1  0
  2  3  1  0
  3  4  1  0
  4  5  1  0
  5  6  1  0
  6  7  1  0
  8  7  1  1
  8  9  1  0
  9 10  1  0
 10 11  1  0
 11 12  1  0
 12 13  1  1
 12 14  1  0
 14 15  1  0
 15 16  1  0
 16 17  1  0
 17 18  1  0
 18 19  1  0
 19 20  1  0
 21 20  1  6
 21 22  1  0
 22 23  1  0
 23 24  1  0
 24 25  1  0
 21 26  1  0
 26 27  1  0
 27 28  1  0
 28 29  1  0
  9 30  1  6
 30 31  1  0
 31 32  1  0
 32 33  1  0
 12  8  1  0
M  RAD  6   3   2  10   2  18   2  20   2  26   2  29   3
M  END
>  <docking_score>  (2) 
0.02

$$$$
