
     RDKit          3D

 23 25  0  0  0  0  0  0  0  0999 V2000
   16.2840   -1.5391   -1.8709 C   0  0  0  0  0  0  0  0  0  0  0  0
   16.9922   -1.9229   -3.1394 C   0  0  1  0  0  0  0  0  0  0  0  0
   18.4869   -2.1499   -2.9140 C   0  0  0  0  0  0  0  0  0  0  0  0
   18.7467   -3.3965   -2.1195 C   0  0  2  0  0  0  0  0  0  0  0  0
   20.0976   -3.6141   -2.0503 O   0  0  0  0  0  0  0  0  0  0  0  0
   18.0917   -4.6225   -2.7031 C   0  0  2  0  0  0  0  0  0  0  0  0
   18.6192   -4.9933   -3.9280 O   0  0  0  0  0  0  0  0  0  0  0  0
   16.5981   -4.3194   -2.7891 C   0  0  1  0  0  0  0  0  0  0  0  0
   16.2116   -3.8985   -1.5194 O   0  0  0  0  0  0  0  0  0  0  0  0
   16.4361   -3.1663   -3.7310 C   0  0  1  0  0  0  0  0  0  0  0  0
   15.1542   -3.0507   -4.3274 N   0  0  0  0  0  0  0  0  0  0  0  0
   15.0904   -3.4946   -5.6961 C   0  0  1  0  0  0  0  0  0  0  0  0
   16.2763   -3.0790   -6.5183 C   0  0  2  0  0  0  0  0  0  0  0  0
   15.7342   -2.4287   -7.7911 C   0  0  0  0  0  0  0  0  0  0  0  0
   17.0473   -4.1643   -6.9440 O   0  0  0  0  0  0  0  0  0  0  0  0
   18.1515   -4.2889   -6.1351 N   0  0  0  0  0  0  0  0  0  0  0  0
   17.6679   -4.8370   -4.8948 C   0  0  1  0  0  0  0  0  0  0  0  0
   16.8606   -6.0571   -5.1975 C   0  0  1  0  0  0  0  0  0  0  0  0
   17.3667   -7.2129   -4.6485 O   0  0  0  0  0  0  0  0  0  0  0  0
   15.3971   -5.8636   -4.9161 C   0  0  2  0  0  0  0  0  0  0  0  0
   14.7797   -7.1134   -4.9965 O   0  0  0  0  0  0  0  0  0  0  0  0
   14.7160   -4.9311   -5.8547 C   0  0  1  0  0  0  0  0  0  0  0  0
   13.3313   -5.0290   -5.6165 O   0  0  0  0  0  0  0  0  0  0  0  0
  2  1  1  1
  2  3  1  0
  3  4  1  0
  4  5  1  6
  4  6  1  0
  6  7  1  6
  6  8  1  0
  8  9  1  1
  8 10  1  0
 10 11  1  1
 12 11  1  1
 12 13  1  0
 13 14  1  6
 13 15  1  0
 15 16  1  0
 17 16  1  6
 17 18  1  0
 18 19  1  1
 18 20  1  0
 20 21  1  6
 20 22  1  0
 22 23  1  1
 10  2  1  0
 17  7  1  0
 22 12  1  0
M  END
>  <docking_score>  (1) 
-6.4640000000000004

$$$$

     RDKit          3D

 23 25  0  0  0  0  0  0  0  0999 V2000
   15.6562   -2.4794   -7.8411 C   0  0  0  0  0  0  0  0  0  0  0  0
   16.4292   -1.8305   -6.7280 C   0  0  1  0  0  0  0  0  0  0  0  0
   15.5825   -0.8169   -5.9586 C   0  0  0  0  0  0  0  0  0  0  0  0
   14.5191   -1.4881   -5.1392 C   0  0  2  0  0  0  0  0  0  0  0  0
   13.8716   -0.5473   -4.3824 O   0  0  0  0  0  0  0  0  0  0  0  0
   15.0589   -2.5550   -4.2211 C   0  0  2  0  0  0  0  0  0  0  0  0
   15.8680   -2.0532   -3.2163 O   0  0  0  0  0  0  0  0  0  0  0  0
   15.7958   -3.5582   -5.1047 C   0  0  1  0  0  0  0  0  0  0  0  0
   14.9000   -3.9301   -6.1036 O   0  0  0  0  0  0  0  0  0  0  0  0
   16.9330   -2.8264   -5.7482 C   0  0  1  0  0  0  0  0  0  0  0  0
   18.0037   -3.6453   -6.1901 N   0  0  0  0  0  0  0  0  0  0  0  0
   19.1641   -3.6221   -5.3374 C   0  0  1  0  0  0  0  0  0  0  0  0
   19.5061   -2.2526   -4.8251 C   0  0  2  0  0  0  0  0  0  0  0  0
   20.9912   -2.0258   -5.1074 C   0  0  0  0  0  0  0  0  0  0  0  0
   19.3604   -2.1405   -3.4395 O   0  0  0  0  0  0  0  0  0  0  0  0
   18.1693   -1.5183   -3.1515 N   0  0  0  0  0  0  0  0  0  0  0  0
   17.1453   -2.4990   -3.4008 C   0  0  1  0  0  0  0  0  0  0  0  0
   17.4963   -3.7500   -2.6633 C   0  0  1  0  0  0  0  0  0  0  0  0
   16.5716   -4.1167   -1.7126 O   0  0  0  0  0  0  0  0  0  0  0  0
   17.8708   -4.8761   -3.5853 C   0  0  2  0  0  0  0  0  0  0  0  0
   17.9410   -6.0441   -2.8233 O   0  0  0  0  0  0  0  0  0  0  0  0
   19.1694   -4.6817   -4.2855 C   0  0  1  0  0  0  0  0  0  0  0  0
   19.4927   -5.8966   -4.9204 O   0  0  0  0  0  0  0  0  0  0  0  0
  2  1  1  6
  2  3  1  0
  3  4  1  0
  4  5  1  1
  4  6  1  0
  6  7  1  1
  6  8  1  0
  8  9  1  6
  8 10  1  0
 10 11  1  6
 12 11  1  1
 12 13  1  0
 13 14  1  1
 13 15  1  0
 15 16  1  0
 17 16  1  1
 17 18  1  0
 18 19  1  6
 18 20  1  0
 20 21  1  1
 20 22  1  0
 22 23  1  6
 10  2  1  0
 17  7  1  0
 22 12  1  0
M  END
>  <docking_score>  (2) 
-6.1559999999999997

$$$$

     RDKit          3D

 23 25  0  0  0  0  0  0  0  0999 V2000
   21.1559   -3.9833   -4.8910 C   0  0  0  0  0  0  0  0  0  0  0  0
   20.0732   -4.6149   -4.0624 C   0  0  1  0  0  0  0  0  0  0  0  0
   20.4159   -4.6094   -2.5728 C   0  0  0  0  0  0  0  0  0  0  0  0
   20.3684   -3.2245   -1.9961 C   0  0  2  0  0  0  0  0  0  0  0  0
   20.5648   -3.2927   -0.6419 O   0  0  0  0  0  0  0  0  0  0  0  0
   19.0643   -2.5146   -2.2575 C   0  0  2  0  0  0  0  0  0  0  0  0
   17.9877   -3.0924   -1.6071 O   0  0  0  0  0  0  0  0  0  0  0  0
   18.8761   -2.4927   -3.7721 C   0  0  1  0  0  0  0  0  0  0  0  0
   20.0453   -1.9545   -4.3030 O   0  0  0  0  0  0  0  0  0  0  0  0
   18.7724   -3.9169   -4.2237 C   0  0  1  0  0  0  0  0  0  0  0  0
   18.1146   -4.1090   -5.4658 N   0  0  0  0  0  0  0  0  0  0  0  0
   16.7644   -4.5984   -5.3568 C   0  0  1  0  0  0  0  0  0  0  0  0
   16.5938   -5.6628   -4.3114 C   0  0  2  0  0  0  0  0  0  0  0  0
   15.8611   -6.8293   -4.9741 C   0  0  0  0  0  0  0  0  0  0  0  0
   15.7797   -5.2550   -3.2509 O   0  0  0  0  0  0  0  0  0  0  0  0
   16.5644   -4.8892   -2.1836 N   0  0  0  0  0  0  0  0  0  0  0  0
   17.1272   -3.6106   -2.5318 C   0  0  1  0  0  0  0  0  0  0  0  0
   16.0179   -2.7015   -2.9499 C   0  0  1  0  0  0  0  0  0  0  0  0
   15.8786   -1.5870   -2.1549 O   0  0  0  0  0  0  0  0  0  0  0  0
   16.0614   -2.3766   -4.4165 C   0  0  2  0  0  0  0  0  0  0  0  0
   15.1477   -1.3471   -4.6513 O   0  0  0  0  0  0  0  0  0  0  0  0
   15.7287   -3.5244   -5.3033 C   0  0  1  0  0  0  0  0  0  0  0  0
   15.5843   -3.0201   -6.6103 O   0  0  0  0  0  0  0  0  0  0  0  0
  2  1  1  6
  2  3  1  0
  3  4  1  0
  4  5  1  1
  4  6  1  0
  6  7  1  1
  6  8  1  0
  8  9  1  6
  8 10  1  0
 10 11  1  6
 12 11  1  1
 12 13  1  0
 13 14  1  6
 13 15  1  0
 15 16  1  0
 17 16  1  1
 17 18  1  0
 18 19  1  1
 18 20  1  0
 20 21  1  1
 20 22  1  0
 22 23  1  6
 10  2  1  0
 17  7  1  0
 22 12  1  0
M  END
>  <docking_score>  (3) 
-5.6580000000000004

$$$$
