
     RDKit          3D

  7  6  0  0  0  0  0  0  0  0999 V2000
  133.6719  121.5148  140.0944 C   0  0  0  0  0  0  0  0  0  0  0  0
  135.1334  122.4120  139.5481 S   0  0  0  0  0  0  0  0  0  0  0  0
  136.6376  121.4943  139.8165 C   0  0  0  0  0  0  0  0  0  0  0  0
  137.0228  120.4813  139.0738 C   0  0  0  0  0  0  0  0  0  0  0  0
  136.2234  120.0300  137.9516 C   0  0  0  0  0  0  0  0  0  0  0  0
  135.6491  118.8485  138.0051 C   0  0  0  0  0  0  0  0  0  0  0  0
  135.7451  117.9981  139.0471 F   0  0  0  0  0  0  0  0  0  0  0  0
  1  2  1  0
  2  3  1  0
  3  4  2  3
  4  5  1  0
  5  6  2  3
  6  7  1  0
M  END
>  <docking_score>  (1) 
-3.569

$$$$

     RDKit          3D

  7  6  0  0  0  0  0  0  0  0999 V2000
  136.3197  124.0144  140.0487 C   0  0  0  0  0  0  0  0  0  0  0  0
  136.0950  122.2587  140.3750 S   0  0  0  0  0  0  0  0  0  0  0  0
  137.4954  121.2841  139.8598 C   0  0  0  0  0  0  0  0  0  0  0  0
  137.4596  120.4043  138.8847 C   0  0  0  0  0  0  0  0  0  0  0  0
  136.2392  120.1617  138.1407 C   0  0  0  0  0  0  0  0  0  0  0  0
  135.6134  119.0148  138.2882 C   0  0  0  0  0  0  0  0  0  0  0  0
  136.0251  118.0176  139.0972 F   0  0  0  0  0  0  0  0  0  0  0  0
  1  2  1  0
  2  3  1  0
  3  4  2  3
  4  5  1  0
  5  6  2  3
  6  7  1  0
M  END
>  <docking_score>  (2) 
-3.4430000000000001

$$$$

     RDKit          3D

  7  6  0  0  0  0  0  0  0  0999 V2000
  136.5228  118.5541  139.0228 C   0  0  0  0  0  0  0  0  0  0  0  0
  137.3367  120.1289  138.7113 S   0  0  0  0  0  0  0  0  0  0  0  0
  137.2153  121.2453  140.0954 C   0  0  0  0  0  0  0  0  0  0  0  0
  136.2329  122.1009  140.2655 C   0  0  0  0  0  0  0  0  0  0  0  0
  135.1489  122.1950  139.3074 C   0  0  0  0  0  0  0  0  0  0  0  0
  133.9575  121.7481  139.6385 C   0  0  0  0  0  0  0  0  0  0  0  0
  133.6525  121.1939  140.8294 F   0  0  0  0  0  0  0  0  0  0  0  0
  1  2  1  0
  2  3  1  0
  3  4  2  3
  4  5  1  0
  5  6  2  3
  6  7  1  0
M  END
>  <docking_score>  (3) 
-3.4100000000000001

$$$$
