
     RDKit          3D

 59 63  0  0  0  0  0  0  0  0999 V2000
   13.2598   14.2944   13.1492 C   0  0  0  0  0  0  0  0  0  0  0  0
   13.0085   12.9391   12.7663 O   0  0  0  0  0  0  0  0  0  0  0  0
   12.5360   12.5897   11.5199 C   0  0  0  0  0  0  0  0  0  0  0  0
   11.5132   11.7301   11.4689 C   0  0  0  0  0  0  0  0  0  0  0  0
   10.9847   11.3352   10.1883 C   0  0  0  0  0  0  0  0  0  0  0  0
    9.8665   11.7075    9.6397 C   0  0  0  0  0  0  0  0  0  0  0  0
    9.5181   11.1858    8.3310 C   0  0  0  0  0  0  0  0  0  0  0  0
    8.5486   11.6238    7.5678 C   0  0  0  0  0  0  0  0  0  0  0  0
    7.6879   12.7273    7.9766 C   0  0  1  0  0  0  0  0  0  0  0  0
    8.3771   14.0711    7.9139 C   0  0  2  0  0  0  0  0  0  0  0  0
    7.6893   15.0479    8.5753 O   0  0  0  0  0  0  0  0  0  0  0  0
    8.8565   14.4156    6.5454 C   0  0  0  0  0  0  0  0  0  0  0  0
    9.6367   13.2945    5.9430 C   0  0  0  0  0  0  0  0  0  0  0  0
    9.0246   12.7066    4.6968 C   0  0  0  0  0  0  0  0  0  0  0  0
    7.5363   12.7248    4.6633 C   0  0  0  0  0  0  0  0  0  0  0  0
    6.9759   14.0026    5.1531 C   0  0  2  0  0  0  0  0  0  0  0  0
    6.0982   13.9073    6.3695 C   0  0  0  0  0  0  0  0  0  0  0  0
    6.4660   14.9404    4.1858 C   0  0  0  0  0  0  0  0  0  0  0  0
    5.7237   14.7826    3.1273 C   0  0  0  0  0  0  0  0  0  0  0  0
    5.3800   16.0154    2.3345 C   0  0  0  0  0  0  0  0  0  0  0  0
    5.2319   13.4573    2.6989 C   0  0  0  0  0  0  0  0  0  0  0  0
    3.9482   13.6798    1.9626 C   0  0  0  0  0  0  0  0  0  0  0  0
    2.7318   13.8889    1.1885 C   0  0  0  0  0  0  0  0  0  0  0  0
    2.8161   13.9091    2.6480 C   0  0  0  0  0  0  0  0  0  0  0  0
    2.8340   13.9398    4.1385 C   0  0  0  0  0  0  0  0  0  0  0  0
    3.6575   12.7818    4.6077 C   0  0  0  0  0  0  0  0  0  0  0  0
    3.9910   12.9034    5.9754 O   0  0  0  0  0  0  0  0  0  0  0  0
    4.2826   11.6908    6.5504 C   0  0  0  0  0  0  0  0  0  0  0  0
    5.5890   11.7115    7.3014 C   0  0  0  0  0  0  0  0  0  0  0  0
    6.4044   12.7473    7.2139 C   0  0  0  0  0  0  0  0  0  0  0  0
    8.9654   12.6324   10.3285 C   0  0  0  0  0  0  0  0  0  0  0  0
    9.5332   13.2822   11.5138 C   0  0  0  0  0  0  0  0  0  0  0  0
    8.7012   13.7499   12.4619 C   0  0  0  0  0  0  0  0  0  0  0  0
    9.2265   14.4181   13.6837 C   0  0  0  0  0  0  0  0  0  0  0  0
    8.1810   15.4049   14.1898 C   0  0  0  0  0  0  0  0  0  0  0  0
    7.0098   14.6438   14.7895 C   0  0  0  0  0  0  0  0  0  0  0  0
    5.6980   15.2985   14.3996 C   0  0  0  0  0  0  0  0  0  0  0  0
    4.5945   14.4162   14.8958 C   0  0  0  0  0  0  0  0  0  0  0  0
    4.3990   13.3238   14.0209 C   0  0  0  0  0  0  0  0  0  0  0  0
    4.2518   12.4789   13.3676 C   0  0  0  0  0  0  0  0  0  0  0  0
    4.0649   11.3621   12.4887 C   0  0  0  0  0  0  0  0  0  0  0  0
    2.9275   11.6828   11.5366 C   0  0  0  0  0  0  0  0  0  0  0  0
    3.4245   11.8597   10.0976 C   0  0  0  0  0  0  0  0  0  0  0  0
    5.2054   12.2931   10.1377 S   0  0  0  0  0  0  0  0  0  0  0  0
    6.1053   10.8187    9.5824 C   0  0  0  0  0  0  0  0  0  0  0  0
    5.8999   10.5157    8.1151 C   0  0  1  0  0  0  0  0  0  0  0  0
    4.8829    9.4513    7.9871 C   0  0  0  0  0  0  0  0  0  0  0  0
    4.4719    8.9253    6.8746 C   0  0  0  0  0  0  0  0  0  0  0  0
    3.4825    7.8831    6.6781 C   0  0  2  0  0  0  0  0  0  0  0  0
    2.4840    8.0759    5.6049 C   0  0  0  0  0  0  0  0  0  0  0  0
    3.0455    7.1337    7.8403 C   0  0  0  0  0  0  0  0  0  0  0  0
    2.4139    7.8465    8.9807 C   0  0  0  0  0  0  0  0  0  0  0  0
    3.1857    5.8011    7.9378 C   0  0  0  0  0  0  0  0  0  0  0  0
    3.8249    5.0309    6.7980 C   0  0  0  0  0  0  0  0  0  0  0  0
    2.8044    4.3972    5.9533 C   0  0  0  0  0  0  0  0  0  0  0  0
    2.4492    4.9764    4.5098 S   0  0  0  0  0  0  0  0  0  0  0  0
    3.3620    6.3682    4.0852 O   0  0  0  0  0  0  0  0  0  0  0  0
    2.9236    7.6579    4.2769 C   0  0  0  0  0  0  0  0  0  0  0  0
    2.9060    8.4794    3.2872 N   0  0  0  0  0  0  0  0  0  0  0  0
  1  2  1  0
  2  3  1  0
  3  4  2  3
  4  5  1  0
  5  6  2  3
  6  7  1  0
  7  8  2  3
  9  8  1  6
  9 10  1  0
 10 11  1  6
 10 12  1  0
 12 13  1  0
 13 14  1  0
 14 15  1  0
 16 15  1  6
 16 17  1  0
 16 18  1  0
 18 19  2  3
 19 20  1  0
 19 21  1  0
 21 22  1  0
 22 23  1  0
 22 24  2  0
 24 25  1  0
 25 26  1  0
 26 27  1  0
 27 28  1  0
 28 29  1  0
 29 30  2  3
  6 31  1  0
 31 32  1  0
 32 33  2  3
 33 34  1  0
 34 35  1  0
 35 36  1  0
 36 37  1  0
 37 38  1  0
 38 39  1  0
 39 40  3  0
 40 41  1  0
 41 42  1  0
 42 43  1  0
 43 44  1  0
 44 45  1  0
 46 45  1  1
 46 47  1  0
 47 48  2  3
 48 49  1  0
 49 50  1  1
 49 51  1  0
 51 52  1  0
 51 53  2  3
 53 54  1  0
 54 55  1  0
 55 56  2  3
 56 57  1  0
 57 58  1  0
 58 59  2  0
 30  9  1  0
 30 17  1  0
 24 23  1  0
 46 29  1  0
 58 50  1  0
M  END
>  <docking_score>  (1) 
63.637999999999998

$$$$
