
     RDKit          3D

 25 24  0  0  0  0  0  0  0  0999 V2000
   21.3715    0.4672   -5.6093 C   0  0  0  0  0  0  0  0  0  0  0  0
   20.0425    0.8958   -5.5943 O   0  0  0  0  0  0  0  0  0  0  0  0
   19.1951   -0.1964   -5.3638 C   0  0  0  0  0  3  0  0  0  0  0  0
   19.9653   -1.3436   -5.2937 O   0  0  0  0  0  0  0  0  0  0  0  0
   19.4938   -2.3697   -6.1460 C   0  0  0  0  0  3  0  0  0  0  0  0
   18.5861   -2.0481   -7.2505 C   0  0  1  0  0  0  0  0  0  0  0  0
   19.3756   -2.1774   -8.4527 O   0  0  0  0  0  0  0  0  0  0  0  0
   17.5213   -3.1393   -7.5531 C   0  0  1  0  0  0  0  0  0  0  0  0
   18.3454   -4.3536   -7.2407 O   0  0  0  0  0  0  0  0  0  0  0  0
   17.5546   -5.4256   -7.8646 C   0  0  0  0  0  2  0  0  0  0  0  0
   16.7767   -2.8736   -6.3307 O   0  0  0  0  0  0  0  0  0  0  0  0
   15.4495   -2.6511   -6.5985 C   0  0  0  0  0  3  0  0  0  0  0  0
   14.5784   -2.3463   -5.3246 C   0  0  0  0  0  3  0  0  0  0  0  0
   14.5631   -3.6483   -4.7859 O   0  0  0  0  0  0  0  0  0  0  0  0
   14.2952   -4.5323   -5.9285 C   0  0  0  0  0  0  0  0  0  0  0  0
   14.1022   -5.9137   -5.4788 C   0  0  0  0  0  0  0  0  0  0  0  0
   15.0649   -6.6432   -4.6676 C   0  0  0  0  0  0  0  0  0  0  0  0
   16.0833   -5.7248   -4.3141 O   0  0  0  0  0  0  0  0  0  0  0  0
   17.3228   -6.1628   -4.2391 C   0  0  0  0  0  3  0  0  0  0  0  0
   17.9433   -5.7489   -2.8806 C   0  0  0  0  0  3  0  0  0  0  0  0
   18.6846   -4.5420   -2.9905 N   0  0  0  0  0  3  0  0  0  0  0  0
   20.0246   -4.7259   -3.3034 N   0  0  0  0  0  1  0  0  0  0  0  0
   18.6771   -3.7432   -1.7192 C   0  0  0  0  0  0  0  0  0  0  0  0
   18.5827   -2.3900   -2.3388 N   0  0  0  0  0  0  0  0  0  0  0  0
   17.2370   -2.1631   -2.7399 C   0  0  0  0  0  2  0  0  0  0  0  0
  1  2  1  0
  2  3  1  0
  3  4  1  0
  4  5  1  0
  5  6  1  0
  6  7  1  6
  6  8  1  0
  8  9  1  1
  9 10  1  0
  8 11  1  0
 11 12  1  0
 12 13  1  0
 13 14  1  0
 14 15  1  0
 15 16  1  0
 16 17  1  0
 17 18  1  0
 18 19  1  0
 19 20  1  0
 20 21  1  0
 21 22  1  0
 21 23  1  0
 23 24  1  0
 24 25  1  0
M  RAD  8   3   2   5   2  10   3  12   2  13   2  19   2  20   2  21   2
M  CHG  2  21   1  22   1
M  RAD  2  22   2  25   3
M  END
>  <docking_score>  (1) 
-2.6970000000000001

$$$$

     RDKit          3D

 25 24  0  0  0  0  0  0  0  0999 V2000
   21.2929   -1.2319   -7.6757 C   0  0  0  0  0  0  0  0  0  0  0  0
   20.5444   -2.0791   -8.4955 O   0  0  0  0  0  0  0  0  0  0  0  0
   19.2860   -2.3041   -7.9210 C   0  0  0  0  0  3  0  0  0  0  0  0
   19.4251   -3.2365   -6.9085 O   0  0  0  0  0  0  0  0  0  0  0  0
   18.8090   -2.8276   -5.7022 C   0  0  0  0  0  3  0  0  0  0  0  0
   19.2064   -3.4381   -4.4307 C   0  0  1  0  0  0  0  0  0  0  0  0
   20.5596   -3.9018   -4.6282 O   0  0  0  0  0  0  0  0  0  0  0  0
   19.4727   -2.4264   -3.2811 C   0  0  1  0  0  0  0  0  0  0  0  0
   18.9527   -1.1856   -3.9455 O   0  0  0  0  0  0  0  0  0  0  0  0
   20.0649   -0.2443   -3.7432 C   0  0  0  0  0  2  0  0  0  0  0  0
   18.3580   -2.9115   -2.4803 O   0  0  0  0  0  0  0  0  0  0  0  0
   17.3208   -2.0131   -2.4810 C   0  0  0  0  0  3  0  0  0  0  0  0
   15.9859   -2.5721   -3.0977 C   0  0  0  0  0  3  0  0  0  0  0  0
   15.3265   -1.3399   -3.2782 O   0  0  0  0  0  0  0  0  0  0  0  0
   14.5601   -1.4944   -4.5221 C   0  0  0  0  0  0  0  0  0  0  0  0
   14.6102   -2.8820   -4.9908 C   0  0  0  0  0  0  0  0  0  0  0  0
   15.0182   -3.2693   -6.3327 C   0  0  0  0  0  0  0  0  0  0  0  0
   14.4988   -4.5669   -6.5611 O   0  0  0  0  0  0  0  0  0  0  0  0
   15.3468   -5.5614   -6.7216 C   0  0  0  0  0  3  0  0  0  0  0  0
   15.4056   -6.4134   -5.4284 C   0  0  0  0  0  3  0  0  0  0  0  0
   16.7273   -6.8559   -5.1535 N   0  0  0  0  0  3  0  0  0  0  0  0
   17.2974   -6.2752   -4.0287 N   0  0  0  0  0  1  0  0  0  0  0  0
   17.6781   -6.5654   -6.2787 C   0  0  0  0  0  0  0  0  0  0  0  0
   18.0144   -7.9775   -6.6203 N   0  0  0  0  0  0  0  0  0  0  0  0
   17.3991   -8.8375   -5.6689 C   0  0  0  0  0  2  0  0  0  0  0  0
  1  2  1  0
  2  3  1  0
  3  4  1  0
  4  5  1  0
  5  6  1  0
  6  7  1  6
  6  8  1  0
  8  9  1  6
  9 10  1  0
  8 11  1  0
 11 12  1  0
 12 13  1  0
 13 14  1  0
 14 15  1  0
 15 16  1  0
 16 17  1  0
 17 18  1  0
 18 19  1  0
 19 20  1  0
 20 21  1  0
 21 22  1  0
 21 23  1  0
 23 24  1  0
 24 25  1  0
M  RAD  8   3   2   5   2  10   3  12   2  13   2  19   2  20   2  21   2
M  CHG  2  21   1  22   1
M  RAD  2  22   2  25   3
M  END
>  <docking_score>  (2) 
-2.3959999999999999

$$$$

     RDKit          3D

 25 24  0  0  0  0  0  0  0  0999 V2000
   13.7241   -4.5922   -7.4628 C   0  0  0  0  0  0  0  0  0  0  0  0
   14.2518   -5.8110   -7.0316 O   0  0  0  0  0  0  0  0  0  0  0  0
   14.1415   -5.9085   -5.6379 C   0  0  0  0  0  3  0  0  0  0  0  0
   15.3414   -5.5145   -5.0730 O   0  0  0  0  0  0  0  0  0  0  0  0
   15.3201   -4.1712   -4.6293 C   0  0  0  0  0  3  0  0  0  0  0  0
   16.3571   -3.2350   -5.0715 C   0  0  1  0  0  0  0  0  0  0  0  0
   16.7006   -3.6413   -6.4140 O   0  0  0  0  0  0  0  0  0  0  0  0
   15.8449   -1.8017   -5.3863 C   0  0  1  0  0  0  0  0  0  0  0  0
   14.7187   -1.7405   -4.3967 O   0  0  0  0  0  0  0  0  0  0  0  0
   13.8208   -0.7557   -5.0193 C   0  0  0  0  0  2  0  0  0  0  0  0
   16.9645   -1.1607   -4.7118 O   0  0  0  0  0  0  0  0  0  0  0  0
   17.5720   -2.0227   -3.8338 C   0  0  0  0  0  3  0  0  0  0  0  0
   17.4893   -1.5722   -2.3289 C   0  0  0  0  0  3  0  0  0  0  0  0
   18.8346   -1.8093   -1.9828 O   0  0  0  0  0  0  0  0  0  0  0  0
   19.2412   -2.9639   -2.7954 C   0  0  0  0  0  0  0  0  0  0  0  0
   19.0330   -4.2133   -2.0583 C   0  0  0  0  0  0  0  0  0  0  0  0
   18.0742   -5.2349   -2.4507 C   0  0  0  0  0  0  0  0  0  0  0  0
   18.7851   -6.1942   -3.2123 O   0  0  0  0  0  0  0  0  0  0  0  0
   18.5291   -6.2853   -4.5007 C   0  0  0  0  0  3  0  0  0  0  0  0
   19.5494   -7.2399   -5.1712 C   0  0  0  0  0  3  0  0  0  0  0  0
   19.3061   -7.3698   -6.5649 N   0  0  0  0  0  3  0  0  0  0  0  0
   18.1609   -6.7191   -7.0038 N   0  0  0  0  0  1  0  0  0  0  0  0
   19.1409   -8.8002   -6.9903 C   0  0  0  0  0  0  0  0  0  0  0  0
   17.6504   -8.8405   -6.9670 N   0  0  0  0  0  0  0  0  0  0  0  0
   17.2315   -9.6513   -5.8758 C   0  0  0  0  0  2  0  0  0  0  0  0
  1  2  1  0
  2  3  1  0
  3  4  1  0
  4  5  1  0
  5  6  1  0
  6  7  1  6
  6  8  1  0
  8  9  1  1
  9 10  1  0
  8 11  1  0
 11 12  1  0
 12 13  1  0
 13 14  1  0
 14 15  1  0
 15 16  1  0
 16 17  1  0
 17 18  1  0
 18 19  1  0
 19 20  1  0
 20 21  1  0
 21 22  1  0
 21 23  1  0
 23 24  1  0
 24 25  1  0
M  RAD  8   3   2   5   2  10   3  12   2  13   2  19   2  20   2  21   2
M  CHG  2  21   1  22   1
M  RAD  2  22   2  25   3
M  END
>  <docking_score>  (3) 
-2.254

$$$$
