
     RDKit          3D

 26 27  0  0  0  0  0  0  0  0999 V2000
    4.1432   12.2600    5.8045 C   0  0  0  0  0  0  0  0  0  0  0  0
    4.4872   13.5561    6.4423 C   0  0  1  0  0  0  0  0  0  0  0  0
    4.0808   13.6864    7.8690 C   0  0  0  0  0  0  0  0  0  0  0  0
    5.8558   14.0669    6.1329 C   0  0  0  0  0  0  0  0  0  0  0  0
    5.7109   15.0595    4.9728 C   0  0  0  0  0  0  0  0  0  0  0  0
    6.8075   16.0748    4.9656 C   0  0  0  0  0  0  0  0  0  0  0  0
    7.9564   15.6646    4.0520 C   0  0  1  0  0  0  0  0  0  0  0  0
    9.1594   15.4343    4.9417 C   0  0  0  0  0  0  0  0  0  0  0  0
    7.5904   14.3340    3.4398 C   0  0  0  0  0  3  0  0  0  0  0  0
    8.1837   14.1633    2.0560 C   0  0  0  0  0  3  0  0  0  0  0  0
    7.2280   13.2950    1.2599 C   0  0  0  0  0  0  0  0  0  0  0  0
    6.9443   11.9905    1.9535 C   0  0  2  0  0  0  0  0  0  0  0  0
    6.7100   10.9446    0.8715 C   0  0  0  0  0  0  0  0  0  0  0  0
    5.7257   12.0824    2.8585 C   0  0  0  0  0  3  0  0  0  0  0  0
    4.8082   10.9384    2.5443 C   0  0  2  0  0  0  0  0  0  0  0  0
    3.3501   11.3243    2.3508 C   0  0  1  0  0  0  0  0  0  0  0  0
    2.6640   10.2357    1.5327 C   0  0  0  0  0  0  0  0  0  0  0  0
    3.1655   11.0655    3.8486 C   0  0  0  0  0  0  0  0  0  0  0  0
    4.3857   10.1783    3.7766 C   0  0  1  0  0  0  0  0  0  0  0  0
    3.9711    8.7601    3.4491 C   0  0  0  0  0  0  0  0  0  0  0  0
    3.1454    8.3113    4.4770 O   0  0  0  0  0  0  0  0  0  0  0  0
    3.8022    6.9534    5.2814 S   0  0  0  0  0  0  0  0  0  0  0  0
    2.7659    5.4763    5.0364 C   0  0  0  0  0  0  0  0  0  0  0  0
    5.3275   10.3200    4.8998 C   0  0  0  0  0  0  0  0  0  0  0  0
    6.4024    9.4012    4.9996 N   0  0  0  0  0  0  0  0  0  0  0  0
    5.2291   11.2603    5.8271 C   0  0  0  0  0  0  0  0  0  0  0  0
  1  2  1  0
  2  3  1  1
  2  4  1  0
  4  5  1  0
  5  6  1  0
  6  7  1  0
  7  8  1  1
  7  9  1  0
  9 10  1  0
 10 11  1  0
 11 12  1  0
 12 13  1  6
 12 14  1  0
 15 14  1  1
 15 16  1  0
 16 17  1  6
 16 18  1  0
 18 19  1  0
 19 20  1  6
 20 21  1  0
 21 22  1  0
 22 23  1  0
 19 24  1  0
 24 25  1  0
 24 26  2  3
 26  1  1  0
 19 15  1  0
M  RAD  3   9   2  10   2  14   2
M  END
>  <docking_score>  (1) 
-4.806

$$$$

     RDKit          3D

 26 27  0  0  0  0  0  0  0  0999 V2000
   15.4363   -3.9638   -5.6953 C   0  0  0  0  0  0  0  0  0  0  0  0
   14.7326   -5.2410   -5.9757 C   0  0  1  0  0  0  0  0  0  0  0  0
   13.5084   -5.1177   -6.8145 C   0  0  0  0  0  0  0  0  0  0  0  0
   15.6227   -6.3854   -6.3331 C   0  0  0  0  0  0  0  0  0  0  0  0
   15.8589   -7.1868   -5.0470 C   0  0  0  0  0  0  0  0  0  0  0  0
   16.1735   -8.6199   -5.3312 C   0  0  0  0  0  0  0  0  0  0  0  0
   17.6756   -8.8723   -5.3862 C   0  0  1  0  0  0  0  0  0  0  0  0
   17.9981   -9.2719   -6.8103 C   0  0  0  0  0  0  0  0  0  0  0  0
   18.3626   -7.5538   -5.1242 C   0  0  0  0  0  3  0  0  0  0  0  0
   19.6991   -7.7371   -4.4343 C   0  0  0  0  0  3  0  0  0  0  0  0
   19.9263   -6.5180   -3.5607 C   0  0  0  0  0  0  0  0  0  0  0  0
   19.8299   -5.2386   -4.3462 C   0  0  2  0  0  0  0  0  0  0  0  0
   20.7856   -4.2410   -3.7049 C   0  0  0  0  0  0  0  0  0  0  0  0
   18.4166   -4.6772   -4.3450 C   0  0  0  0  0  3  0  0  0  0  0  0
   18.4759   -3.2313   -3.9511 C   0  0  2  0  0  0  0  0  0  0  0  0
   17.4811   -2.8214   -2.8764 C   0  0  1  0  0  0  0  0  0  0  0  0
   17.9893   -1.5512   -2.2031 C   0  0  0  0  0  0  0  0  0  0  0  0
   16.5160   -2.4757   -4.0137 C   0  0  0  0  0  0  0  0  0  0  0  0
   17.7257   -2.3383   -4.9075 C   0  0  1  0  0  0  0  0  0  0  0  0
   18.2360   -0.9140   -4.8662 C   0  0  0  0  0  0  0  0  0  0  0  0
   19.5989   -0.9432   -5.1512 O   0  0  0  0  0  0  0  0  0  0  0  0
   20.3027    0.6132   -5.0809 S   0  0  0  0  0  0  0  0  0  0  0  0
   21.3428    0.9336   -6.5408 C   0  0  0  0  0  0  0  0  0  0  0  0
   17.5773   -2.9196   -6.2524 C   0  0  0  0  0  0  0  0  0  0  0  0
   18.5953   -2.6775   -7.2087 N   0  0  0  0  0  0  0  0  0  0  0  0
   16.5434   -3.6593   -6.6231 C   0  0  0  0  0  0  0  0  0  0  0  0
  1  2  1  0
  2  3  1  6
  2  4  1  0
  4  5  1  0
  5  6  1  0
  6  7  1  0
  7  8  1  6
  7  9  1  0
  9 10  1  0
 10 11  1  0
 11 12  1  0
 12 13  1  1
 12 14  1  0
 15 14  1  6
 15 16  1  0
 16 17  1  6
 16 18  1  0
 18 19  1  0
 19 20  1  6
 20 21  1  0
 21 22  1  0
 22 23  1  0
 19 24  1  0
 24 25  1  0
 24 26  2  3
 26  1  1  0
 19 15  1  0
M  RAD  3   9   2  10   2  14   2
M  END
>  <docking_score>  (2) 
-4.1970000000000001

$$$$
