
     RDKit          3D

 28 28  0  0  0  0  0  0  0  0999 V2000
    5.0599   10.5190    4.2651 C   0  0  0  0  0  0  0  0  0  0  0  0
    4.7595    9.5516    3.1838 C   0  0  1  0  0  0  0  0  0  0  0  0
    5.4759    9.8379    1.9052 C   0  0  0  0  0  0  0  0  0  0  0  0
    4.8855    8.1351    3.6531 C   0  0  0  0  0  0  0  0  0  0  0  0
    3.6852    7.8048    4.5205 C   0  0  0  0  0  0  0  0  0  0  0  0
    4.0531    6.8537    5.6322 C   0  0  0  0  0  0  0  0  0  0  0  0
    2.7838    6.2531    6.1801 C   0  0  1  0  0  0  0  0  0  0  0  0
    3.0957    4.8898    6.7177 C   0  0  0  0  0  0  0  0  0  0  0  0
    2.2583    7.1711    7.2838 C   0  0  0  0  0  3  0  0  0  0  0  0
    3.3850    7.4320    8.2418 C   0  0  0  0  0  0  0  0  0  0  0  0
    2.9176    8.1354    9.4785 C   0  0  0  0  0  0  0  0  0  0  0  0
    4.0235    9.1017    9.9073 C   0  0  0  0  0  3  0  0  0  0  0  0
    3.3779   10.4082   10.2538 C   0  0  2  0  0  0  0  0  0  0  0  0
    2.4457   10.9088    9.1927 C   0  0  0  0  0  0  0  0  0  0  0  0
    4.3625   11.4485   10.6813 C   0  0  0  0  0  0  0  0  0  0  0  0
    4.3143   12.6425    9.7479 C   0  0  2  0  0  0  0  0  0  0  0  0
    2.9670   13.1876    9.6392 C   0  0  0  0  0  0  0  0  0  0  0  0
    2.4128   14.2146   10.1653 C   0  0  0  0  0  0  0  0  0  0  0  0
    2.8620   15.2479   11.0664 C   0  0  0  0  0  0  0  0  0  0  0  0
    3.0127   14.7366   12.4640 C   0  0  0  0  0  0  0  0  0  0  0  0
    4.3424   14.6890   12.8080 O   0  0  0  0  0  0  0  0  0  0  0  0
    4.7614   12.1483    8.3858 C   0  0  0  0  0  0  0  0  0  0  0  0
    4.7476   13.2346    7.3470 C   0  0  1  0  0  0  0  0  0  0  0  0
    6.1093   13.8492    7.2024 C   0  0  0  0  0  2  0  0  0  0  0  0
    4.2447   12.7523    6.0025 C   0  0  2  0  0  0  0  0  0  0  0  0
    3.7308   11.3346    6.0721 C   0  0  0  0  0  0  0  0  0  0  0  0
    5.3946   12.8457    4.9964 C   0  0  0  0  0  0  0  0  0  0  0  0
    5.0964   11.8106    3.9512 C   0  0  0  0  0  0  0  0  0  0  0  0
  1  2  1  0
  2  3  1  6
  2  4  1  0
  4  5  1  0
  5  6  1  0
  6  7  1  0
  7  8  1  1
  7  9  1  0
  9 10  1  0
 10 11  1  0
 11 12  1  0
 12 13  1  0
 13 14  1  6
 13 15  1  0
 16 15  1  1
 16 17  1  0
 17 18  2  3
 18 19  1  0
 19 20  1  0
 20 21  1  0
 16 22  1  0
 22 23  1  0
 23 24  1  6
 23 25  1  0
 25 26  1  1
 25 27  1  0
 27 28  1  0
  1 28  2  3
M  RAD  3   9   2  12   2  24   3
M  END
>  <docking_score>  (1) 
-4.0259999999999998

$$$$

     RDKit          3D

 28 28  0  0  0  0  0  0  0  0999 V2000
    3.0782    8.1823    6.8838 C   0  0  0  0  0  0  0  0  0  0  0  0
    3.1613    7.4856    5.5788 C   0  0  1  0  0  0  0  0  0  0  0  0
    2.6865    6.0705    5.6218 C   0  0  0  0  0  0  0  0  0  0  0  0
    2.5623    8.2998    4.4739 C   0  0  0  0  0  0  0  0  0  0  0  0
    3.5188    9.4266    4.1308 C   0  0  0  0  0  0  0  0  0  0  0  0
    2.7767   10.6737    3.7185 C   0  0  0  0  0  0  0  0  0  0  0  0
    3.7437   11.5868    3.0092 C   0  0  1  0  0  0  0  0  0  0  0  0
    2.9791   12.4170    2.0239 C   0  0  0  0  0  0  0  0  0  0  0  0
    4.4254   12.4674    4.0566 C   0  0  0  0  0  3  0  0  0  0  0  0
    3.3528   13.0952    4.8996 C   0  0  0  0  0  0  0  0  0  0  0  0
    3.9012   14.1505    5.8097 C   0  0  0  0  0  0  0  0  0  0  0  0
    3.1138   14.0866    7.1199 C   0  0  0  0  0  3  0  0  0  0  0  0
    4.0972   14.1664    8.2470 C   0  0  2  0  0  0  0  0  0  0  0  0
    5.2301   13.1943    8.1153 C   0  0  0  0  0  0  0  0  0  0  0  0
    3.4477   14.1026    9.5917 C   0  0  0  0  0  0  0  0  0  0  0  0
    3.9460   12.8985   10.3668 C   0  0  2  0  0  0  0  0  0  0  0  0
    5.3998   12.8873   10.4693 C   0  0  0  0  0  0  0  0  0  0  0  0
    6.1877   12.7806   11.4725 C   0  0  0  0  0  0  0  0  0  0  0  0
    5.9902   12.6302   12.8937 C   0  0  0  0  0  0  0  0  0  0  0  0
    6.1884   11.2142   13.3333 C   0  0  0  0  0  0  0  0  0  0  0  0
    4.9820   10.6546   13.6796 O   0  0  0  0  0  0  0  0  0  0  0  0
    3.4928   11.6702    9.6016 C   0  0  0  0  0  0  0  0  0  0  0  0
    3.9348   10.3905   10.2543 C   0  0  1  0  0  0  0  0  0  0  0  0
    2.8483    9.8373   11.1297 C   0  0  0  0  0  2  0  0  0  0  0  0
    4.3832    9.3470    9.2527 C   0  0  2  0  0  0  0  0  0  0  0  0
    4.4258    9.9000    7.8486 C   0  0  0  0  0  0  0  0  0  0  0  0
    3.4138    8.1644    9.3226 C   0  0  0  0  0  0  0  0  0  0  0  0
    3.4707    7.5202    7.9681 C   0  0  0  0  0  0  0  0  0  0  0  0
  1  2  1  0
  2  3  1  1
  2  4  1  0
  4  5  1  0
  5  6  1  0
  6  7  1  0
  7  8  1  6
  7  9  1  0
  9 10  1  0
 10 11  1  0
 11 12  1  0
 12 13  1  0
 13 14  1  6
 13 15  1  0
 16 15  1  6
 16 17  1  0
 17 18  2  3
 18 19  1  0
 19 20  1  0
 20 21  1  0
 16 22  1  0
 22 23  1  0
 23 24  1  6
 23 25  1  0
 25 26  1  6
 25 27  1  0
 27 28  1  0
  1 28  2  3
M  RAD  3   9   2  12   2  24   3
M  END
>  <docking_score>  (2) 
-3.9449999999999998

$$$$

     RDKit          3D

 28 28  0  0  0  0  0  0  0  0999 V2000
    8.0145   14.8300    7.3231 C   0  0  0  0  0  0  0  0  0  0  0  0
    7.1910   14.8574    6.0916 C   0  0  1  0  0  0  0  0  0  0  0  0
    7.9701   15.1611    4.8544 C   0  0  0  0  0  0  0  0  0  0  0  0
    6.3132   13.6491    5.9819 C   0  0  0  0  0  0  0  0  0  0  0  0
    5.1645   13.7957    6.9625 C   0  0  0  0  0  0  0  0  0  0  0  0
    4.7495   12.4606    7.5292 C   0  0  0  0  0  0  0  0  0  0  0  0
    3.3826   12.6131    8.1462 C   0  0  1  0  0  0  0  0  0  0  0  0
    2.6750   11.2949    8.0673 C   0  0  0  0  0  0  0  0  0  0  0  0
    3.5606   13.0543    9.5990 C   0  0  0  0  0  3  0  0  0  0  0  0
    4.5271   12.1089   10.2528 C   0  0  0  0  0  0  0  0  0  0  0  0
    4.5982   12.3157   11.7342 C   0  0  0  0  0  0  0  0  0  0  0  0
    6.0462   12.0754   12.1661 C   0  0  0  0  0  3  0  0  0  0  0  0
    6.4295   13.1759   13.1073 C   0  0  2  0  0  0  0  0  0  0  0  0
    6.1224   14.5434   12.5771 C   0  0  0  0  0  0  0  0  0  0  0  0
    7.8373   13.0595   13.5962 C   0  0  0  0  0  0  0  0  0  0  0  0
    8.6441   14.2774   13.1903 C   0  0  2  0  0  0  0  0  0  0  0  0
    8.0174   15.5137   13.6409 C   0  0  0  0  0  0  0  0  0  0  0  0
    7.9572   16.0750   14.7898 C   0  0  0  0  0  0  0  0  0  0  0  0
    8.4647   15.7421   16.0986 C   0  0  0  0  0  0  0  0  0  0  0  0
    7.3742   15.2875   17.0161 C   0  0  0  0  0  0  0  0  0  0  0  0
    6.5260   14.4331   16.3534 O   0  0  0  0  0  0  0  0  0  0  0  0
    8.7038   14.2747   11.6751 C   0  0  0  0  0  0  0  0  0  0  0  0
    9.4686   15.4472   11.1276 C   0  0  1  0  0  0  0  0  0  0  0  0
   10.8953   15.0701   10.8533 C   0  0  0  0  0  2  0  0  0  0  0  0
    8.8324   16.0317    9.8839 C   0  0  2  0  0  0  0  0  0  0  0  0
    7.4977   15.3931    9.5843 C   0  0  0  0  0  0  0  0  0  0  0  0
    9.7908   15.8223    8.7088 C   0  0  0  0  0  0  0  0  0  0  0  0
    8.9220   15.7883    7.4854 C   0  0  0  0  0  0  0  0  0  0  0  0
  1  2  1  0
  2  3  1  6
  2  4  1  0
  4  5  1  0
  5  6  1  0
  6  7  1  0
  7  8  1  1
  7  9  1  0
  9 10  1  0
 10 11  1  0
 11 12  1  0
 12 13  1  0
 13 14  1  6
 13 15  1  0
 16 15  1  6
 16 17  1  0
 17 18  2  3
 18 19  1  0
 19 20  1  0
 20 21  1  0
 16 22  1  0
 22 23  1  0
 23 24  1  6
 23 25  1  0
 25 26  1  6
 25 27  1  0
 27 28  1  0
  1 28  2  3
M  RAD  3   9   2  12   2  24   3
M  END
>  <docking_score>  (3) 
-2.6400000000000001

$$$$
