
     RDKit          3D

 23 22  0  0  0  0  0  0  0  0999 V2000
   16.3764   -6.8964   -6.9757 O   0  0  0  0  0  0  0  0  0  0  0  0
   17.5564   -6.9199   -7.4082 C   0  0  0  0  0  0  0  0  0  0  0  0
   18.0432   -5.9265   -8.2145 O   0  0  0  0  0  0  0  0  0  0  0  0
   18.4078   -8.0674   -7.0133 C   0  0  0  0  0  0  0  0  0  0  0  0
   18.3489   -8.2315   -5.5099 C   0  0  0  0  0  0  0  0  0  0  0  0
   19.1109   -7.1318   -4.8376 C   0  0  0  0  0  0  0  0  0  0  0  0
   18.6232   -6.6421   -3.7112 C   0  0  0  0  0  0  0  0  0  0  0  0
   19.2969   -5.5703   -2.9901 C   0  0  0  0  0  0  0  0  0  0  0  0
   21.3650   -5.7161   -2.6838 I   0  0  0  0  0  0  0  0  0  0  0  0
   18.6717   -4.5209   -2.5300 C   0  0  0  0  0  0  0  0  0  0  0  0
   17.2976   -4.4193   -2.7373 O   0  0  0  0  0  0  0  0  0  0  0  0
   16.5139   -4.1450   -1.6031 C   0  0  0  0  0  0  0  0  0  0  0  0
   19.4058   -3.4668   -1.8068 C   0  0  0  0  0  0  0  0  0  0  0  0
   19.9511   -2.4661   -2.7948 C   0  0  0  0  0  0  0  0  0  0  0  0
   19.3608   -1.2834   -2.7567 C   0  0  0  0  0  0  0  0  0  0  0  0
   19.7992   -0.2412   -3.6583 C   0  0  0  0  0  0  0  0  0  0  0  0
   19.4753   -0.2776   -4.9441 C   0  0  0  0  0  0  0  0  0  0  0  0
   19.8952    0.7142   -5.7878 O   0  0  0  0  0  1  0  0  0  0  0  0
   18.6567   -1.4092   -5.4276 C   0  0  2  0  0  0  0  0  0  0  0  0
   19.3415   -2.0215   -6.6158 C   0  0  0  0  0  0  0  0  0  0  0  0
   17.3812   -0.9304   -5.7142 O   0  0  0  0  0  0  0  0  0  0  0  0
   16.4800   -1.7466   -5.0408 C   0  0  0  0  0  0  0  0  0  0  0  0
   16.4327   -3.4596   -5.9149 Br  0  0  0  0  0  0  0  0  0  0  0  0
  1  2  2  0
  2  3  1  0
  2  4  1  0
  4  5  1  0
  5  6  1  0
  6  7  2  3
  7  8  1  0
  8  9  1  0
  8 10  2  3
 10 11  1  0
 11 12  1  0
 10 13  1  0
 13 14  1  0
 14 15  2  3
 15 16  1  0
 16 17  2  3
 17 18  1  0
 17 19  1  0
 19 20  1  6
 19 21  1  0
 21 22  1  0
 22 23  1  0
M  CHG  1  18  -1
M  END
>  <docking_score>  (1) 
-3.0779999999999998

$$$$

     RDKit          3D

 23 22  0  0  0  0  0  0  0  0999 V2000
   18.9664   -3.1249   -1.7896 O   0  0  0  0  0  0  0  0  0  0  0  0
   18.8348   -1.9090   -2.0797 C   0  0  0  0  0  0  0  0  0  0  0  0
   17.6060   -1.3058   -2.0953 O   0  0  0  0  0  0  0  0  0  0  0  0
   20.0630   -1.1462   -2.4068 C   0  0  0  0  0  0  0  0  0  0  0  0
   19.9972   -0.7005   -3.8517 C   0  0  0  0  0  0  0  0  0  0  0  0
   18.9226   -1.4492   -4.5773 C   0  0  0  0  0  0  0  0  0  0  0  0
   18.4098   -0.8959   -5.6623 C   0  0  0  0  0  0  0  0  0  0  0  0
   17.3595   -1.5520   -6.4300 C   0  0  0  0  0  0  0  0  0  0  0  0
   17.8873   -2.5584   -8.1909 I   0  0  0  0  0  0  0  0  0  0  0  0
   16.1054   -1.5453   -6.0685 C   0  0  0  0  0  0  0  0  0  0  0  0
   15.7531   -0.8815   -4.8953 O   0  0  0  0  0  0  0  0  0  0  0  0
   14.6679   -1.4145   -4.1783 C   0  0  0  0  0  0  0  0  0  0  0  0
   15.0849   -2.2265   -6.8858 C   0  0  0  0  0  0  0  0  0  0  0  0
   15.2389   -3.7198   -6.7395 C   0  0  0  0  0  0  0  0  0  0  0  0
   14.6882   -4.2213   -5.6469 C   0  0  0  0  0  0  0  0  0  0  0  0
   14.7709   -5.6435   -5.3982 C   0  0  0  0  0  0  0  0  0  0  0  0
   15.9450   -6.2303   -5.2061 C   0  0  0  0  0  0  0  0  0  0  0  0
   16.0111   -7.5764   -4.9711 O   0  0  0  0  0  1  0  0  0  0  0  0
   17.1617   -5.3927   -5.2531 C   0  0  2  0  0  0  0  0  0  0  0  0
   18.1904   -6.0903   -6.0962 C   0  0  0  0  0  0  0  0  0  0  0  0
   17.5835   -5.1669   -3.9456 O   0  0  0  0  0  0  0  0  0  0  0  0
   18.3603   -6.2583   -3.5751 C   0  0  0  0  0  0  0  0  0  0  0  0
   20.1846   -5.6773   -3.3881 Br  0  0  0  0  0  0  0  0  0  0  0  0
  1  2  2  0
  2  3  1  0
  2  4  1  0
  4  5  1  0
  5  6  1  0
  6  7  2  3
  7  8  1  0
  8  9  1  0
  8 10  2  3
 10 11  1  0
 11 12  1  0
 10 13  1  0
 13 14  1  0
 14 15  2  3
 15 16  1  0
 16 17  2  3
 17 18  1  0
 17 19  1  0
 19 20  1  6
 19 21  1  0
 21 22  1  0
 22 23  1  0
M  CHG  1  18  -1
M  END
>  <docking_score>  (2) 
-2.702

$$$$

     RDKit          3D

 23 22  0  0  0  0  0  0  0  0999 V2000
   17.2237   -1.5693   -7.0208 O   0  0  0  0  0  0  0  0  0  0  0  0
   17.7399   -2.2857   -7.9153 C   0  0  0  0  0  0  0  0  0  0  0  0
   17.0458   -3.3097   -8.5016 O   0  0  0  0  0  0  0  0  0  0  0  0
   19.1346   -1.9822   -8.3159 C   0  0  0  0  0  0  0  0  0  0  0  0
   19.9988   -3.1967   -8.0536 C   0  0  0  0  0  0  0  0  0  0  0  0
   19.7804   -3.6979   -6.6597 C   0  0  0  0  0  0  0  0  0  0  0  0
   20.6000   -3.2713   -5.7148 C   0  0  0  0  0  0  0  0  0  0  0  0
   20.4630   -3.7077   -4.3315 C   0  0  0  0  0  0  0  0  0  0  0  0
   21.3822   -5.4996   -3.7519 I   0  0  0  0  0  0  0  0  0  0  0  0
   19.7975   -3.0309   -3.4356 C   0  0  0  0  0  0  0  0  0  0  0  0
   19.1901   -1.8365   -3.8174 O   0  0  0  0  0  0  0  0  0  0  0  0
   19.5623   -0.6887   -3.0964 C   0  0  0  0  0  0  0  0  0  0  0  0
   19.6921   -3.5218   -2.0495 C   0  0  0  0  0  0  0  0  0  0  0  0
   18.6141   -4.5737   -1.9697 C   0  0  0  0  0  0  0  0  0  0  0  0
   17.5500   -4.3230   -2.7138 C   0  0  0  0  0  0  0  0  0  0  0  0
   16.4499   -5.2616   -2.7193 C   0  0  0  0  0  0  0  0  0  0  0  0
   15.7885   -5.5232   -3.8389 C   0  0  0  0  0  0  0  0  0  0  0  0
   14.7496   -6.4135   -3.8324 O   0  0  0  0  0  1  0  0  0  0  0  0
   16.2060   -4.8310   -5.0762 C   0  0  2  0  0  0  0  0  0  0  0  0
   15.3129   -3.6414   -5.2834 C   0  0  0  0  0  0  0  0  0  0  0  0
   16.1544   -5.7466   -6.1238 O   0  0  0  0  0  0  0  0  0  0  0  0
   16.6375   -6.9537   -5.6326 C   0  0  0  0  0  0  0  0  0  0  0  0
   18.5006   -7.0998   -6.0889 Br  0  0  0  0  0  0  0  0  0  0  0  0
  1  2  2  0
  2  3  1  0
  2  4  1  0
  4  5  1  0
  5  6  1  0
  6  7  2  3
  7  8  1  0
  8  9  1  0
  8 10  2  3
 10 11  1  0
 11 12  1  0
 10 13  1  0
 13 14  1  0
 14 15  2  3
 15 16  1  0
 16 17  2  3
 17 18  1  0
 17 19  1  0
 19 20  1  6
 19 21  1  0
 21 22  1  0
 22 23  1  0
M  CHG  1  18  -1
M  END
>  <docking_score>  (3) 
-2.3559999999999999

$$$$
