
     RDKit          3D

  9  8  0  0  0  0  0  0  0  0999 V2000
   19.6897   12.8429   -3.4868 O   0  0  0  0  0  0  0  0  0  0  0  0
   18.8113   12.2741   -2.6939 O   0  0  0  0  0  0  0  0  0  0  0  0
   19.2841   11.1786   -2.2421 C   0  0  0  0  0  3  0  0  0  0  0  0
   20.2710   11.0840   -1.3423 O   0  0  0  0  0  0  0  0  0  0  0  0
   20.2787    9.8623   -0.6858 C   0  0  2  0  0  0  0  0  0  0  0  0
   19.7755    8.8072   -1.7298 C   0  0  0  0  0  0  0  0  0  0  0  0
   21.0093    7.7621   -1.8422 C   0  0  0  0  0  2  0  0  0  0  0  0
   19.2302    9.7075    0.3873 C   0  0  0  0  0  3  0  0  0  0  0  0
   19.7938    9.9781    1.6252 O   0  0  0  0  0  0  0  0  0  0  0  0
  1  2  1  0
  2  3  1  0
  3  4  1  0
  4  5  1  0
  5  6  1  6
  6  7  1  0
  5  8  1  0
  8  9  1  0
M  RAD  3   3   2   7   3   8   2
M  END
>  <docking_score>  (1) 
-3.2869999999999999

$$$$

     RDKit          3D

  9  8  0  0  0  0  0  0  0  0999 V2000
    6.7037   -0.5906   -6.1134 O   0  0  0  0  0  0  0  0  0  0  0  0
    6.7488   -1.5772   -5.2483 O   0  0  0  0  0  0  0  0  0  0  0  0
    5.9037   -2.4757   -5.5745 C   0  0  0  0  0  3  0  0  0  0  0  0
    5.5691   -2.7915   -6.8319 O   0  0  0  0  0  0  0  0  0  0  0  0
    5.1552   -4.1092   -6.9583 C   0  0  2  0  0  0  0  0  0  0  0  0
    5.5207   -4.5390   -8.4204 C   0  0  0  0  0  0  0  0  0  0  0  0
    6.1878   -6.0043   -8.2328 C   0  0  0  0  0  2  0  0  0  0  0  0
    3.6604   -4.3097   -6.9793 C   0  0  0  0  0  3  0  0  0  0  0  0
    3.2145   -4.3176   -8.2925 O   0  0  0  0  0  0  0  0  0  0  0  0
  1  2  1  0
  2  3  1  0
  3  4  1  0
  4  5  1  0
  5  6  1  6
  6  7  1  0
  5  8  1  0
  8  9  1  0
M  RAD  3   3   2   7   3   8   2
M  END
>  <docking_score>  (2) 
-3.0870000000000002

$$$$

     RDKit          3D

  9  8  0  0  0  0  0  0  0  0999 V2000
    7.1501    0.1226   -5.3864 O   0  0  0  0  0  0  0  0  0  0  0  0
    7.4100   -1.1464   -5.1726 O   0  0  0  0  0  0  0  0  0  0  0  0
    6.3835   -1.8501   -5.4536 C   0  0  0  0  0  3  0  0  0  0  0  0
    5.3390   -1.4260   -6.1760 O   0  0  0  0  0  0  0  0  0  0  0  0
    4.9858   -2.3185   -7.1772 C   0  0  2  0  0  0  0  0  0  0  0  0
    5.9548   -3.5411   -7.0284 C   0  0  0  0  0  0  0  0  0  0  0  0
    4.9998   -4.8216   -7.3027 C   0  0  0  0  0  2  0  0  0  0  0  0
    5.3212   -1.8718   -8.5782 C   0  0  0  0  0  3  0  0  0  0  0  0
    5.8554   -0.5926   -8.5391 O   0  0  0  0  0  0  0  0  0  0  0  0
  1  2  1  0
  2  3  1  0
  3  4  1  0
  4  5  1  0
  5  6  1  1
  6  7  1  0
  5  8  1  0
  8  9  1  0
M  RAD  3   3   2   7   3   8   2
M  END
>  <docking_score>  (3) 
-3.008

$$$$
