
     RDKit          3D

 61 65  0  0  0  0  0  0  0  0999 V2000
    8.5778    3.8165   -4.6124 O   0  0  0  0  0  0  0  0  0  0  0  0
    7.6747    2.9976   -5.0301 C   0  0  0  0  0  0  0  0  0  0  0  0
    6.9057    3.0145   -6.1746 C   0  0  0  0  0  0  0  0  0  0  0  0
    6.9058    3.6147   -7.4955 C   0  0  0  0  0  0  0  0  0  0  0  0
    6.1076    3.4829   -8.3873 C   0  0  0  0  0  0  0  0  0  0  0  0
    4.9315    2.6419   -8.3098 C   0  0  0  0  0  0  0  0  0  0  0  0
    4.8506    2.0186   -7.0875 C   0  0  0  0  0  0  0  0  0  0  0  0
    5.7661    2.1618   -6.0406 C   0  0  0  0  0  0  0  0  0  0  0  0
    5.9019    1.5957   -4.6823 C   0  0  0  0  0  0  0  0  0  0  0  0
    4.8536    1.0933   -4.1182 O   0  0  0  0  0  0  0  0  0  0  0  0
    7.2690    1.7366   -4.2330 C   0  0  0  0  0  0  0  0  0  0  0  0
    8.2303    0.6382   -4.9699 C   0  0  1  0  0  0  0  0  0  0  0  0
    7.8418   -0.4921   -4.3818 N   0  0  0  0  0  0  0  0  0  0  0  0
    7.2676   -1.6011   -4.2855 C   0  0  0  0  0  0  0  0  0  0  0  0
    6.5546   -1.8469   -5.7417 C   0  0  2  0  0  0  0  0  0  0  0  0
    7.6646   -2.2348   -6.4887 O   0  0  0  0  0  0  0  0  0  0  0  0
    6.0429   -0.6156   -6.1956 N   0  0  0  0  0  0  0  0  0  0  0  0
    7.3828    0.5108   -6.6240 S   0  0  0  0  0  0  0  0  0  0  0  0
    6.6232    1.9263   -6.9075 C   0  0  0  0  0  0  0  0  0  0  0  0
    9.5122    1.0904   -4.9244 C   0  0  0  0  0  0  0  0  0  0  0  0
   10.7051    1.4360   -4.7647 C   0  0  0  0  0  0  0  0  0  0  0  0
   11.9595    1.2161   -5.1112 C   0  0  0  0  0  0  0  0  0  0  0  0
   13.1048    1.9109   -4.6203 C   0  0  0  0  0  0  0  0  0  0  0  0
   14.0023    1.1444   -3.8880 C   0  0  0  0  0  0  0  0  0  0  0  0
   13.6163   -0.2871   -3.7632 C   0  0  0  0  0  0  0  0  0  0  0  0
   14.4964   -1.2204   -3.8842 C   0  0  0  0  0  0  0  0  0  0  0  0
   13.9761   -2.6986   -3.7042 C   0  0  2  0  0  0  0  0  0  0  0  0
   14.8643   -3.0986   -2.4245 C   0  0  1  0  0  0  0  0  0  0  0  0
   15.6785   -4.1164   -2.7520 O   0  0  0  0  0  0  0  0  0  0  0  0
   15.4649   -1.8380   -1.9357 C   0  0  0  0  0  0  0  0  0  0  0  0
   15.5014   -0.7823   -2.9483 C   0  0  0  0  0  0  0  0  0  0  0  0
   16.4677   -0.0327   -3.0682 O   0  0  0  0  0  0  0  0  0  0  0  0
   14.7088   -3.3977   -4.7858 C   0  0  0  0  0  0  0  0  0  0  0  0
   14.8662   -4.3355   -5.1804 C   0  0  0  0  0  0  0  0  0  0  0  0
   15.2955   -5.7301   -6.0127 C   0  0  0  0  0  0  0  0  0  0  0  0
   15.8220   -6.3236   -4.7004 C   0  0  0  0  0  0  0  0  0  0  0  0
   15.9789   -6.1478   -3.5718 C   0  0  0  0  0  0  0  0  0  0  0  0
   16.5538   -3.8185   -5.5715 C   0  0  0  0  0  0  0  0  0  0  0  0
   17.2695   -3.9445   -4.4186 O   0  0  0  0  0  0  0  0  0  0  0  0
   18.2349   -2.6849   -4.8184 C   0  0  1  0  0  0  0  0  0  0  0  0
   17.9568   -2.0454   -3.5488 C   0  0  0  0  0  0  0  0  0  0  0  0
   18.7979   -1.7379   -2.6203 C   0  0  0  0  0  0  0  0  0  0  0  0
   20.2122   -2.0519   -2.8845 C   0  0  1  0  0  0  0  0  0  0  0  0
   20.4263   -3.2870   -3.8112 C   0  0  0  0  0  0  0  0  0  0  0  0
   19.5085   -3.5434   -4.7018 C   0  0  0  0  0  0  0  0  0  0  0  0
   19.5765   -4.6360   -5.7520 C   0  0  1  0  0  0  0  0  0  0  0  0
   19.0428   -3.9265   -7.2983 S   0  0  0  0  0  0  0  0  0  0  0  0
   20.0586   -4.5054   -8.6917 C   0  0  0  0  0  0  0  0  0  0  0  0
   21.0125   -5.3729   -8.2505 C   0  0  0  0  0  0  0  0  0  0  0  0
   21.2694   -5.8126   -7.0152 C   0  0  0  0  0  0  0  0  0  0  0  0
   20.6584   -5.5294   -5.8014 C   0  0  0  0  0  0  0  0  0  0  0  0
   21.2873   -6.3570   -4.7331 C   0  0  0  0  0  0  0  0  0  0  0  0
   21.3319   -7.7056   -4.9891 O   0  0  0  0  0  1  0  0  0  0  0  0
   20.6228   -1.0574   -3.9075 N   0  0  0  0  0  4  0  0  0  0  0  0
   20.9842   -0.2021   -4.8111 C   0  0  0  0  0  0  0  0  0  0  0  0
   21.3795    0.7267   -5.7688 C   0  0  0  0  0  0  0  0  0  0  0  0
   20.2643    1.7301   -5.9692 N   0  0  0  0  0  2  0  0  0  0  0  0
   20.9094    3.3679   -6.0387 S   0  0  0  0  0  0  0  0  0  0  0  0
   19.6703    4.5210   -5.3328 C   0  0  0  0  0  0  0  0  0  0  0  0
   18.3236    4.0111   -5.6351 C   0  0  0  0  0  0  0  0  0  0  0  0
   17.3938    4.8541   -6.1050 C   0  0  0  0  0  0  0  0  0  0  0  0
  1  2  2  0
  2  3  1  0
  3  4  2  0
  4  5  1  0
  5  6  2  0
  6  7  1  0
  7  8  2  0
  8  9  1  0
  9 10  2  0
  9 11  1  0
 11 12  1  0
 12 13  1  0
 13 14  2  0
 14 15  1  0
 15 16  1  6
 15 17  1  0
 18 17  1  1
 18 19  2  0
 12 20  1  6
 20 21  1  0
 21 22  2  3
 22 23  1  0
 23 24  2  3
 24 25  1  0
 25 26  2  3
 27 26  1  6
 27 28  1  0
 28 29  1  6
 28 30  1  0
 30 31  1  0
 31 32  2  0
 27 33  1  0
 33 34  2  3
 34 35  1  0
 35 36  2  3
 36 37  1  0
 34 38  1  0
 38 39  1  0
 40 39  1  1
 40 41  1  0
 41 42  2  0
 42 43  1  0
 43 44  1  0
 44 45  2  0
 46 45  1  1
 46 47  1  0
 47 48  1  0
 48 49  2  0
 49 50  1  0
 50 51  2  0
 51 52  1  0
 52 53  1  0
 43 54  1  6
 54 55  3  0
 55 56  1  0
 56 57  1  0
 57 58  1  0
 58 59  1  0
 59 60  1  0
 60 61  2  0
 11  2  1  0
  8  3  1  0
 18 12  1  0
 45 40  1  0
 51 46  1  0
M  CHG  3  53  -1  54   1  57   1
M  RAD  1  57   3
M  END
>  <docking_score>  (1) 
37.450000000000003

$$$$
