
     RDKit          3D

 16 16  0  0  0  0  0  0  0  0999 V2000
    8.5387    0.4603   20.7566 C   0  0  0  0  0  0  0  0  0  0  0  0
    8.7882    0.1333   22.2338 C   0  0  1  0  0  0  0  0  0  0  0  0
    9.4351   -1.1465   22.2286 O   0  0  0  0  0  0  0  0  0  0  0  0
    8.8959   -2.2154   22.9303 C   0  0  0  0  0  0  0  0  0  0  0  0
    7.5700   -2.3626   22.9274 C   0  0  0  0  0  0  0  0  0  0  0  0
    7.0648   -3.4429   23.6398 O   0  0  0  0  0  0  0  0  0  0  0  0
    6.9652   -3.4010   25.0573 C   0  0  0  0  0  0  0  0  0  0  0  0
    5.8504   -2.4716   25.4967 C   0  0  0  0  0  0  0  0  0  0  0  0
    6.4396   -1.0885   25.7787 C   0  0  0  0  0  0  0  0  0  0  0  0
    5.4489   -0.0705   25.2375 C   0  0  0  0  0  3  0  0  0  0  0  0
    6.0663    1.2957   25.2384 C   0  0  0  0  0  0  0  0  0  0  0  0
    7.1584    1.2944   24.2017 C   0  0  0  0  0  0  0  0  0  0  0  0
    8.3333    1.7101   24.5796 C   0  0  0  0  0  0  0  0  0  0  0  0
    9.4891    1.7964   23.7959 N   0  0  0  0  0  0  0  0  0  0  0  0
    9.7592    1.1343   22.7498 C   0  0  0  0  0  0  0  0  0  0  0  0
   11.0227    1.2818   21.9605 C   0  0  0  0  0  0  0  0  0  0  0  0
  2  1  1  6
  2  3  1  0
  3  4  1  0
  4  5  2  3
  5  6  1  0
  6  7  1  0
  7  8  1  0
  8  9  1  0
  9 10  1  0
 10 11  1  0
 11 12  1  0
 12 13  2  3
 13 14  1  0
 14 15  2  3
 15 16  1  0
 15  2  1  0
M  RAD  1  10   2
M  END
>  <docking_score>  (1) 
-5.2729999999999997

$$$$

     RDKit          3D

 16 16  0  0  0  0  0  0  0  0999 V2000
   11.8315   -3.3554   22.1258 C   0  0  0  0  0  0  0  0  0  0  0  0
   10.4064   -3.3829   21.5603 C   0  0  1  0  0  0  0  0  0  0  0  0
   10.4733   -4.2529   20.4223 O   0  0  0  0  0  0  0  0  0  0  0  0
   10.0846   -3.8076   19.1667 C   0  0  0  0  0  0  0  0  0  0  0  0
   10.3999   -2.5589   18.8188 C   0  0  0  0  0  0  0  0  0  0  0  0
    9.9954   -2.1465   17.5555 O   0  0  0  0  0  0  0  0  0  0  0  0
    8.6455   -1.7781   17.3047 C   0  0  0  0  0  0  0  0  0  0  0  0
    8.3180   -0.4435   17.9461 C   0  0  0  0  0  0  0  0  0  0  0  0
    7.6987   -0.6931   19.3223 C   0  0  0  0  0  0  0  0  0  0  0  0
    8.2745    0.3558   20.2598 C   0  0  0  0  0  3  0  0  0  0  0  0
    7.9223    0.0234   21.6786 C   0  0  0  0  0  0  0  0  0  0  0  0
    8.6827   -1.2226   22.0487 C   0  0  0  0  0  0  0  0  0  0  0  0
    7.9966   -2.2043   22.5602 C   0  0  0  0  0  0  0  0  0  0  0  0
    8.4856   -3.4475   22.9757 N   0  0  0  0  0  0  0  0  0  0  0  0
    9.5391   -4.0300   22.5800 C   0  0  0  0  0  0  0  0  0  0  0  0
   10.0002   -5.3664   23.0728 C   0  0  0  0  0  0  0  0  0  0  0  0
  2  1  1  1
  2  3  1  0
  3  4  1  0
  4  5  2  3
  5  6  1  0
  6  7  1  0
  7  8  1  0
  8  9  1  0
  9 10  1  0
 10 11  1  0
 11 12  1  0
 12 13  2  3
 13 14  1  0
 14 15  2  3
 15 16  1  0
 15  2  1  0
M  RAD  1  10   2
M  END
>  <docking_score>  (2) 
-5.0119999999999996

$$$$

     RDKit          3D

 16 16  0  0  0  0  0  0  0  0999 V2000
    7.7071   -1.2763   17.9065 C   0  0  0  0  0  0  0  0  0  0  0  0
    8.7668   -1.1145   19.0030 C   0  0  1  0  0  0  0  0  0  0  0  0
   10.0214   -1.3360   18.3449 O   0  0  0  0  0  0  0  0  0  0  0  0
   10.8911   -2.3211   18.7914 C   0  0  0  0  0  0  0  0  0  0  0  0
   10.3699   -3.4776   19.2041 C   0  0  0  0  0  0  0  0  0  0  0  0
   11.2690   -4.4407   19.6441 O   0  0  0  0  0  0  0  0  0  0  0  0
   11.8609   -4.3526   20.9337 C   0  0  0  0  0  0  0  0  0  0  0  0
   10.8497   -4.6683   22.0188 C   0  0  0  0  0  0  0  0  0  0  0  0
   10.2357   -3.3604   22.5206 C   0  0  0  0  0  0  0  0  0  0  0  0
    8.7539   -3.6241   22.7334 C   0  0  0  0  0  3  0  0  0  0  0  0
    8.0329   -2.3318   22.9738 C   0  0  0  0  0  0  0  0  0  0  0  0
    8.0619   -1.5559   21.6835 C   0  0  0  0  0  0  0  0  0  0  0  0
    8.4895   -0.3272   21.7414 C   0  0  0  0  0  0  0  0  0  0  0  0
    8.6033    0.5766   20.6795 N   0  0  0  0  0  0  0  0  0  0  0  0
    8.7283    0.3036   19.4485 C   0  0  0  0  0  0  0  0  0  0  0  0
    8.8451    1.3294   18.3643 C   0  0  0  0  0  0  0  0  0  0  0  0
  2  1  1  6
  2  3  1  0
  3  4  1  0
  4  5  2  3
  5  6  1  0
  6  7  1  0
  7  8  1  0
  8  9  1  0
  9 10  1  0
 10 11  1  0
 11 12  1  0
 12 13  2  3
 13 14  1  0
 14 15  2  3
 15 16  1  0
 15  2  1  0
M  RAD  1  10   2
M  END
>  <docking_score>  (3) 
-4.79

$$$$
