
     RDKit          3D

 24 23  0  0  0  0  0  0  0  0999 V2000
   19.0507   -2.8710   -8.2406 C   0  0  0  0  0  0  0  0  0  0  0  0
   19.2957   -2.0222   -7.2477 C   0  0  0  0  0  0  0  0  0  0  0  0
   20.5619   -1.2104   -7.3515 C   0  0  0  0  0  0  0  0  0  0  0  0
   18.4347   -1.8066   -6.0834 C   0  0  0  0  0  3  0  0  0  0  0  0
   17.1560   -2.5209   -6.0176 C   0  0  0  0  0  0  0  0  0  0  0  0
   15.9544   -1.6545   -5.8329 C   0  0  0  0  0  0  0  0  0  0  0  0
   15.4675   -1.6969   -4.4379 C   0  0  0  0  0  3  0  0  0  0  0  0
   14.1873   -0.9919   -4.1500 C   0  0  0  0  0  0  0  0  0  0  0  0
   16.4608   -1.4392   -3.3712 C   0  0  0  0  0  0  0  0  0  0  0  0
   16.3965   -2.2292   -2.1316 C   0  0  0  0  0  0  0  0  0  0  0  0
   16.4424   -3.6990   -2.2964 C   0  0  0  0  0  0  0  0  0  0  0  0
   17.4291   -4.1916   -3.1301 O   0  0  0  0  0  0  0  0  0  0  0  0
   17.1475   -5.5140   -3.4168 C   0  0  0  0  0  0  0  0  0  0  0  0
   15.6806   -5.8129   -3.4770 C   0  0  0  0  0  0  0  0  0  0  0  0
   15.3217   -6.1716   -4.8687 C   0  0  0  0  0  0  0  0  0  0  0  0
   15.3260   -5.2728   -5.8246 C   0  0  0  0  0  0  0  0  0  0  0  0
   14.9643   -5.6445   -7.2159 C   0  0  0  0  0  0  0  0  0  0  0  0
   16.0578   -5.3680   -8.2052 C   0  0  0  0  0  0  0  0  0  0  0  0
   17.0174   -6.5129   -8.3245 C   0  0  0  0  0  3  0  0  0  0  0  0
   18.3365   -6.0770   -7.7023 C   0  0  2  0  0  0  0  0  0  0  0  0
   19.4465   -6.0769   -8.7397 C   0  0  0  0  0  0  0  0  0  0  0  0
   18.7468   -7.0886   -6.6408 C   0  0  0  0  0  0  0  0  0  0  0  0
   17.8507   -8.2991   -6.7891 C   0  0  0  0  0  0  0  0  0  0  0  0
   18.5322   -9.4532   -8.1844 Br  0  0  0  0  0  0  0  0  0  0  0  0
  1  2  2  0
  2  3  1  0
  2  4  1  0
  4  5  1  0
  5  6  1  0
  6  7  1  0
  7  8  1  0
  7  9  1  0
  9 10  1  0
 10 11  1  0
 11 12  1  0
 12 13  1  0
 13 14  1  0
 14 15  1  0
 15 16  2  3
 16 17  1  0
 17 18  1  0
 18 19  1  0
 19 20  1  0
 20 21  1  6
 20 22  1  0
 22 23  1  0
 23 24  1  0
M  RAD  3   4   2   7   2  19   2
M  END
>  <docking_score>  (1) 
-2.819

$$$$

     RDKit          3D

 24 23  0  0  0  0  0  0  0  0999 V2000
   19.2644   -3.3378   -2.1939 C   0  0  0  0  0  0  0  0  0  0  0  0
   20.5323   -3.0341   -1.9358 C   0  0  0  0  0  0  0  0  0  0  0  0
   21.3029   -4.0176   -1.0918 C   0  0  0  0  0  0  0  0  0  0  0  0
   21.2337   -1.8412   -2.4137 C   0  0  0  0  0  3  0  0  0  0  0  0
   20.4513   -0.7803   -3.0555 C   0  0  0  0  0  0  0  0  0  0  0  0
   20.8644   -0.4428   -4.4498 C   0  0  0  0  0  0  0  0  0  0  0  0
   19.7712   -0.6941   -5.4125 C   0  0  0  0  0  3  0  0  0  0  0  0
   18.6003    0.2250   -5.3565 C   0  0  0  0  0  0  0  0  0  0  0  0
   19.3303   -2.0974   -5.5777 C   0  0  0  0  0  0  0  0  0  0  0  0
   19.8107   -2.8633   -6.7384 C   0  0  0  0  0  0  0  0  0  0  0  0
   18.9667   -2.7987   -7.9521 C   0  0  0  0  0  0  0  0  0  0  0  0
   17.8465   -1.9921   -7.8773 O   0  0  0  0  0  0  0  0  0  0  0  0
   16.8771   -2.5007   -8.7208 C   0  0  0  0  0  0  0  0  0  0  0  0
   15.4813   -2.1396   -8.3133 C   0  0  0  0  0  0  0  0  0  0  0  0
   15.2842   -2.5159   -6.8941 C   0  0  0  0  0  0  0  0  0  0  0  0
   14.9671   -1.6185   -5.9910 C   0  0  0  0  0  0  0  0  0  0  0  0
   14.7722   -2.0080   -4.5715 C   0  0  0  0  0  0  0  0  0  0  0  0
   15.9013   -2.8300   -4.0234 C   0  0  0  0  0  0  0  0  0  0  0  0
   16.3863   -3.8533   -5.0049 C   0  0  0  0  0  3  0  0  0  0  0  0
   16.4099   -5.1997   -4.2950 C   0  0  2  0  0  0  0  0  0  0  0  0
   16.3858   -5.0133   -2.7874 C   0  0  0  0  0  0  0  0  0  0  0  0
   17.7181   -5.9102   -4.6146 C   0  0  0  0  0  0  0  0  0  0  0  0
   17.4115   -7.0145   -5.6030 C   0  0  0  0  0  0  0  0  0  0  0  0
   18.2383   -8.6642   -5.0216 Br  0  0  0  0  0  0  0  0  0  0  0  0
  1  2  2  0
  2  3  1  0
  2  4  1  0
  4  5  1  0
  5  6  1  0
  6  7  1  0
  7  8  1  0
  7  9  1  0
  9 10  1  0
 10 11  1  0
 11 12  1  0
 12 13  1  0
 13 14  1  0
 14 15  1  0
 15 16  2  3
 16 17  1  0
 17 18  1  0
 18 19  1  0
 19 20  1  0
 20 21  1  1
 20 22  1  0
 22 23  1  0
 23 24  1  0
M  RAD  3   4   2   7   2  19   2
M  END
>  <docking_score>  (2) 
-2.6309999999999998

$$$$

     RDKit          3D

 24 23  0  0  0  0  0  0  0  0999 V2000
    2.8845    4.8845    4.5351 C   0  0  0  0  0  0  0  0  0  0  0  0
    3.6177    5.9361    4.8856 C   0  0  0  0  0  0  0  0  0  0  0  0
    3.4122    6.4664    6.2820 C   0  0  0  0  0  0  0  0  0  0  0  0
    4.6075    6.6018    4.0366 C   0  0  0  0  0  3  0  0  0  0  0  0
    4.5877    8.0656    3.9557 C   0  0  0  0  0  0  0  0  0  0  0  0
    3.2705    8.6623    3.5847 C   0  0  0  0  0  0  0  0  0  0  0  0
    3.3588    9.4210    2.3191 C   0  0  0  0  0  3  0  0  0  0  0  0
    4.7200    9.8290    1.8724 C   0  0  0  0  0  0  0  0  0  0  0  0
    2.3902   10.5237    2.1275 C   0  0  0  0  0  0  0  0  0  0  0  0
    2.8772   11.9119    2.1497 C   0  0  0  0  0  0  0  0  0  0  0  0
    2.8745   12.5789    3.4706 C   0  0  0  0  0  0  0  0  0  0  0  0
    3.6030   11.9615    4.4702 O   0  0  0  0  0  0  0  0  0  0  0  0
    3.1867   12.4562    5.6918 C   0  0  0  0  0  0  0  0  0  0  0  0
    4.0271   11.9920    6.8420 C   0  0  0  0  0  0  0  0  0  0  0  0
    5.0230   11.0151    6.3439 C   0  0  0  0  0  0  0  0  0  0  0  0
    6.1200   11.4100    5.7420 C   0  0  0  0  0  0  0  0  0  0  0  0
    7.1109   10.4212    5.2471 C   0  0  0  0  0  0  0  0  0  0  0  0
    7.8162   10.8645    3.9993 C   0  0  0  0  0  0  0  0  0  0  0  0
    7.8258   12.3559    3.8527 C   0  0  0  0  0  3  0  0  0  0  0  0
    6.5841   12.7508    3.0657 C   0  0  2  0  0  0  0  0  0  0  0  0
    6.8327   12.6286    1.5719 C   0  0  0  0  0  0  0  0  0  0  0  0
    6.2730   14.2183    3.3262 C   0  0  0  0  0  0  0  0  0  0  0  0
    7.5741   14.9091    3.6733 C   0  0  0  0  0  0  0  0  0  0  0  0
    8.5345   15.3523    2.0534 Br  0  0  0  0  0  0  0  0  0  0  0  0
  1  2  2  0
  2  3  1  0
  2  4  1  0
  4  5  1  0
  5  6  1  0
  6  7  1  0
  7  8  1  0
  7  9  1  0
  9 10  1  0
 10 11  1  0
 11 12  1  0
 12 13  1  0
 13 14  1  0
 14 15  1  0
 15 16  2  3
 16 17  1  0
 17 18  1  0
 18 19  1  0
 19 20  1  0
 20 21  1  6
 20 22  1  0
 22 23  1  0
 23 24  1  0
M  RAD  3   4   2   7   2  19   2
M  END
>  <docking_score>  (3) 
-2.5990000000000002

$$$$
