
     RDKit          3D

 16 16  0  0  0  0  0  0  0  0999 V2000
    6.4073   12.8564    5.4096 C   0  0  0  0  0  0  0  0  0  0  0  0
    6.8474   11.9204    4.3042 C   0  0  1  0  0  0  0  0  0  0  0  0
    6.1813   10.6088    4.3164 C   0  0  0  0  0  0  0  0  0  0  0  0
    5.2283   10.3081    3.2419 C   0  0  2  0  0  0  0  0  0  0  0  0
    5.2946    8.9261    2.9497 O   0  0  0  0  0  0  0  0  0  0  0  0
    5.3745   11.0653    1.9764 C   0  0  2  0  0  0  0  0  0  0  0  0
    6.5334   10.6554    1.2871 O   0  0  0  0  0  0  0  0  0  0  0  0
    5.6102   12.5439    2.3079 C   0  0  1  0  0  0  0  0  0  0  0  0
    4.6079   12.8933    3.2118 O   0  0  0  0  0  0  0  0  0  0  0  0
    6.9560   12.5776    2.9760 C   0  0  1  0  0  0  0  0  0  0  0  0
    7.5646   13.8519    3.0288 N   0  0  0  0  0  0  0  0  0  0  0  0
    8.2959   14.2314    1.8616 C   0  0  0  0  0  3  0  0  0  0  0  0
    9.3059   15.2892    2.2596 C   0  0  0  0  0  0  0  0  0  0  0  0
   10.3892   14.7183    2.9889 O   0  0  0  0  0  0  0  0  0  0  0  0
   10.7559   15.2305    4.2352 C   0  0  0  0  0  0  0  0  0  0  0  0
   11.0301   14.4739    5.2060 O   0  0  0  0  0  0  0  0  0  0  0  0
  2  1  1  1
  2  3  1  0
  3  4  1  0
  4  5  1  6
  4  6  1  0
  6  7  1  1
  6  8  1  0
  8  9  1  1
  8 10  1  0
 10 11  1  1
 11 12  1  0
 12 13  1  0
 13 14  1  0
 14 15  1  0
 15 16  2  0
 10  2  1  0
M  RAD  1  12   2
M  END
>  <docking_score>  (1) 
-3.8300000000000001

$$$$

     RDKit          3D

 16 16  0  0  0  0  0  0  0  0999 V2000
   18.9861   -3.4142   -4.1885 C   0  0  0  0  0  0  0  0  0  0  0  0
   17.7637   -3.9490   -4.9037 C   0  0  1  0  0  0  0  0  0  0  0  0
   17.9047   -5.3256   -5.4030 C   0  0  0  0  0  0  0  0  0  0  0  0
   17.1244   -6.3814   -4.7476 C   0  0  2  0  0  0  0  0  0  0  0  0
   16.7674   -7.3492   -5.7149 O   0  0  0  0  0  0  0  0  0  0  0  0
   15.9009   -5.9666   -4.0216 C   0  0  2  0  0  0  0  0  0  0  0  0
   14.9011   -5.5634   -4.9293 O   0  0  0  0  0  0  0  0  0  0  0  0
   16.2159   -4.7146   -3.1939 C   0  0  1  0  0  0  0  0  0  0  0  0
   17.3759   -5.0146   -2.4810 O   0  0  0  0  0  0  0  0  0  0  0  0
   16.4862   -3.6409   -4.2102 C   0  0  1  0  0  0  0  0  0  0  0  0
   16.4219   -2.3193   -3.7140 N   0  0  0  0  0  0  0  0  0  0  0  0
   15.1396   -1.6947   -3.7961 C   0  0  0  0  0  3  0  0  0  0  0  0
   14.5021   -2.0949   -5.1117 C   0  0  0  0  0  0  0  0  0  0  0  0
   15.0431   -1.3438   -6.1955 O   0  0  0  0  0  0  0  0  0  0  0  0
   15.5368   -1.9887   -7.3315 C   0  0  0  0  0  0  0  0  0  0  0  0
   15.2876   -3.2030   -7.5628 O   0  0  0  0  0  0  0  0  0  0  0  0
  2  1  1  1
  2  3  1  0
  3  4  1  0
  4  5  1  6
  4  6  1  0
  6  7  1  6
  6  8  1  0
  8  9  1  1
  8 10  1  0
 10 11  1  1
 11 12  1  0
 12 13  1  0
 13 14  1  0
 14 15  1  0
 15 16  2  0
 10  2  1  0
M  RAD  1  12   2
M  END
>  <docking_score>  (2) 
-3.6579999999999999

$$$$

     RDKit          3D

 16 16  0  0  0  0  0  0  0  0999 V2000
   14.9945   -2.3476   -4.7235 C   0  0  0  0  0  0  0  0  0  0  0  0
   14.8720   -3.8232   -5.0383 C   0  0  1  0  0  0  0  0  0  0  0  0
   14.5812   -4.1222   -6.4490 C   0  0  0  0  0  0  0  0  0  0  0  0
   15.6358   -4.7496   -7.2536 C   0  0  2  0  0  0  0  0  0  0  0  0
   15.0338   -5.6134   -8.1975 O   0  0  0  0  0  0  0  0  0  0  0  0
   16.6841   -5.5031   -6.5260 C   0  0  2  0  0  0  0  0  0  0  0  0
   16.1544   -6.6950   -5.9921 O   0  0  0  0  0  0  0  0  0  0  0  0
   17.1284   -4.6840   -5.3081 C   0  0  1  0  0  0  0  0  0  0  0  0
   17.4044   -3.4059   -5.7921 O   0  0  0  0  0  0  0  0  0  0  0  0
   15.9270   -4.6563   -4.4054 C   0  0  1  0  0  0  0  0  0  0  0  0
   16.1956   -4.2983   -3.0649 N   0  0  0  0  0  0  0  0  0  0  0  0
   17.4154   -4.8105   -2.5256 C   0  0  0  0  0  3  0  0  0  0  0  0
   18.1440   -3.6720   -1.8399 C   0  0  0  0  0  0  0  0  0  0  0  0
   18.9304   -2.9303   -2.7688 O   0  0  0  0  0  0  0  0  0  0  0  0
   18.6753   -1.5760   -2.9948 C   0  0  0  0  0  0  0  0  0  0  0  0
   19.0370   -1.0040   -4.0588 O   0  0  0  0  0  0  0  0  0  0  0  0
  2  1  1  6
  2  3  1  0
  3  4  1  0
  4  5  1  6
  4  6  1  0
  6  7  1  1
  6  8  1  0
  8  9  1  6
  8 10  1  0
 10 11  1  1
 11 12  1  0
 12 13  1  0
 13 14  1  0
 14 15  1  0
 15 16  2  0
 10  2  1  0
M  RAD  1  12   2
M  END
>  <docking_score>  (3) 
-3.5990000000000002

$$$$
