
     RDKit          3D

 25 25  0  0  0  0  0  0  0  0999 V2000
   19.1564   -3.4337   -1.3998 C   0  0  0  0  0  0  0  0  0  0  0  0
   17.8795   -4.0974   -2.0166 C   0  0  1  0  0  0  0  0  0  0  0  0
   16.7509   -3.1478   -1.9938 C   0  0  0  0  0  0  0  0  0  0  0  0
   17.0388   -1.9008   -2.7821 C   0  0  2  0  0  0  0  0  0  0  0  0
   15.9342   -1.5365   -3.5424 O   0  0  0  0  0  0  0  0  0  0  0  0
   18.3053   -1.9728   -3.5870 C   0  0  2  0  0  0  0  0  0  0  0  0
   18.3673   -0.8750   -4.4073 O   0  0  0  0  0  0  0  0  0  0  0  0
   18.3785   -3.2740   -4.3712 C   0  0  1  0  0  0  0  0  0  0  0  0
   19.5205   -3.2731   -5.1859 O   0  0  0  0  0  0  0  0  0  0  0  0
   18.3083   -4.3959   -3.4588 C   0  0  1  0  0  0  0  0  0  0  0  0
   19.3011   -5.3373   -3.3940 O   0  0  0  0  0  0  0  0  0  0  0  0
   18.7740   -6.6222   -3.5185 C   0  0  0  0  0  3  0  0  0  0  0  0
   17.8969   -6.6922   -4.7210 C   0  0  0  0  0  0  0  0  0  0  0  0
   18.4259   -7.7269   -5.6501 C   0  0  2  0  0  0  0  0  0  0  0  0
   18.4320   -9.0274   -5.1205 O   0  0  0  0  0  0  0  0  0  0  0  0
   19.8592   -7.4538   -6.0377 C   0  0  0  0  0  0  0  0  0  0  0  0
   20.6527   -8.4947   -5.4797 O   0  0  0  0  0  0  0  0  0  0  0  0
   17.4888   -7.8843   -6.8519 C   0  0  2  0  0  0  0  0  0  0  0  0
   18.2276   -8.6084   -7.9593 C   0  0  0  0  0  2  0  0  0  0  0  0
   16.9570   -6.2774   -7.5772 P   0  0  0  0  0  0  0  0  0  0  0  0
   18.1596   -5.0580   -7.5285 O   0  0  0  0  0  0  0  0  0  0  0  0
   15.3133   -5.7108   -7.0016 C   0  0  0  0  0  3  0  0  0  0  0  0
   15.2978   -4.1891   -7.0630 C   0  0  0  0  0  3  0  0  0  0  0  0
   14.8296   -3.6217   -5.8863 O   0  0  0  0  0  0  0  0  0  0  0  0
   15.0364   -4.4408   -4.8658 O   0  0  0  0  0  0  0  0  0  0  0  0
  2  1  1  1
  2  3  1  0
  3  4  1  0
  4  5  1  6
  4  6  1  0
  6  7  1  6
  6  8  1  0
  8  9  1  1
  8 10  1  0
 10 11  1  1
 11 12  1  0
 12 13  1  0
 13 14  1  0
 14 15  1  1
 14 16  1  0
 16 17  1  0
 14 18  1  0
 18 19  1  6
 18 20  1  0
 20 21  1  0
 20 22  1  0
 22 23  1  0
 23 24  1  0
 24 25  1  0
 10  2  1  0
M  RAD  4  12   2  19   3  22   2  23   2
M  END
>  <docking_score>  (1) 
-3.5419999999999998

$$$$

     RDKit          3D

 25 25  0  0  0  0  0  0  0  0999 V2000
   16.8818   -8.5511   -5.4999 C   0  0  0  0  0  0  0  0  0  0  0  0
   17.0004   -6.9974   -5.3471 C   0  0  1  0  0  0  0  0  0  0  0  0
   17.6758   -6.6608   -4.0795 C   0  0  0  0  0  0  0  0  0  0  0  0
   19.0646   -7.2306   -4.0045 C   0  0  2  0  0  0  0  0  0  0  0  0
   19.9496   -6.2956   -3.4815 O   0  0  0  0  0  0  0  0  0  0  0  0
   19.5430   -7.8307   -5.2961 C   0  0  2  0  0  0  0  0  0  0  0  0
   20.8739   -8.1390   -5.1708 O   0  0  0  0  0  0  0  0  0  0  0  0
   19.2842   -6.8892   -6.4623 C   0  0  1  0  0  0  0  0  0  0  0  0
   19.8256   -7.4304   -7.6378 O   0  0  0  0  0  0  0  0  0  0  0  0
   17.8686   -6.5980   -6.5469 C   0  0  1  0  0  0  0  0  0  0  0  0
   17.1414   -6.8709   -7.6751 O   0  0  0  0  0  0  0  0  0  0  0  0
   16.2709   -5.8220   -7.9690 C   0  0  0  0  0  3  0  0  0  0  0  0
   16.8847   -4.5282   -7.5574 C   0  0  0  0  0  0  0  0  0  0  0  0
   15.8045   -3.5447   -7.2751 C   0  0  2  0  0  0  0  0  0  0  0  0
   14.6767   -3.6748   -8.1015 O   0  0  0  0  0  0  0  0  0  0  0  0
   16.2737   -2.1232   -7.4717 C   0  0  0  0  0  0  0  0  0  0  0  0
   17.2134   -2.1332   -8.5401 O   0  0  0  0  0  0  0  0  0  0  0  0
   15.2063   -3.8029   -5.8885 C   0  0  2  0  0  0  0  0  0  0  0  0
   13.9628   -4.6555   -6.0411 C   0  0  0  0  0  2  0  0  0  0  0  0
   14.6543   -2.2673   -5.0350 P   0  0  0  0  0  0  0  0  0  0  0  0
   14.3744   -0.9457   -6.0887 O   0  0  0  0  0  0  0  0  0  0  0  0
   15.6564   -1.8342   -3.5644 C   0  0  0  0  0  3  0  0  0  0  0  0
   16.3897   -3.0910   -3.1145 C   0  0  0  0  0  3  0  0  0  0  0  0
   17.2543   -2.8435   -2.0576 O   0  0  0  0  0  0  0  0  0  0  0  0
   17.9439   -3.9352   -1.7614 O   0  0  0  0  0  0  0  0  0  0  0  0
  2  1  1  1
  2  3  1  0
  3  4  1  0
  4  5  1  6
  4  6  1  0
  6  7  1  1
  6  8  1  0
  8  9  1  6
  8 10  1  0
 10 11  1  6
 11 12  1  0
 12 13  1  0
 13 14  1  0
 14 15  1  6
 14 16  1  0
 16 17  1  0
 14 18  1  0
 18 19  1  6
 18 20  1  0
 20 21  1  0
 20 22  1  0
 22 23  1  0
 23 24  1  0
 24 25  1  0
 10  2  1  0
M  RAD  4  12   2  19   3  22   2  23   2
M  END
>  <docking_score>  (2) 
-3.1509999999999998

$$$$

     RDKit          3D

 25 25  0  0  0  0  0  0  0  0999 V2000
   16.5919   -2.4757   -1.6940 C   0  0  0  0  0  0  0  0  0  0  0  0
   17.0031   -2.4360   -3.2043 C   0  0  1  0  0  0  0  0  0  0  0  0
   18.2189   -1.6193   -3.3794 C   0  0  0  0  0  0  0  0  0  0  0  0
   19.3874   -2.1629   -2.6060 C   0  0  2  0  0  0  0  0  0  0  0  0
   20.5447   -2.1215   -3.3743 O   0  0  0  0  0  0  0  0  0  0  0  0
   19.1357   -3.5141   -1.9996 C   0  0  2  0  0  0  0  0  0  0  0  0
   20.3159   -3.9941   -1.4910 O   0  0  0  0  0  0  0  0  0  0  0  0
   18.5278   -4.4640   -3.0203 C   0  0  1  0  0  0  0  0  0  0  0  0
   18.3927   -5.7418   -2.4574 O   0  0  0  0  0  0  0  0  0  0  0  0
   17.2887   -3.9091   -3.5229 C   0  0  1  0  0  0  0  0  0  0  0  0
   16.0996   -4.5799   -3.4121 O   0  0  0  0  0  0  0  0  0  0  0  0
   15.9689   -5.5270   -4.4272 C   0  0  0  0  0  3  0  0  0  0  0  0
   16.1555   -4.8729   -5.7529 C   0  0  0  0  0  0  0  0  0  0  0  0
   14.8329   -4.4230   -6.2645 C   0  0  2  0  0  0  0  0  0  0  0  0
   14.3257   -3.2811   -5.6237 O   0  0  0  0  0  0  0  0  0  0  0  0
   13.7708   -5.4803   -6.0819 C   0  0  0  0  0  0  0  0  0  0  0  0
   12.6291   -4.8395   -5.5248 O   0  0  0  0  0  0  0  0  0  0  0  0
   14.9656   -3.9356   -7.7109 C   0  0  2  0  0  0  0  0  0  0  0  0
   14.5757   -5.0621   -8.6466 C   0  0  0  0  0  2  0  0  0  0  0  0
   16.6896   -3.4809   -8.1717 P   0  0  0  0  0  0  0  0  0  0  0  0
   17.7549   -4.8173   -8.2927 O   0  0  0  0  0  0  0  0  0  0  0  0
   17.3723   -2.0831   -7.2052 C   0  0  0  0  0  3  0  0  0  0  0  0
   18.8191   -2.4152   -6.8649 C   0  0  0  0  0  3  0  0  0  0  0  0
   19.7130   -1.5384   -7.4631 O   0  0  0  0  0  0  0  0  0  0  0  0
   19.8792   -1.8501   -8.7400 O   0  0  0  0  0  0  0  0  0  0  0  0
  2  1  1  1
  2  3  1  0
  3  4  1  0
  4  5  1  6
  4  6  1  0
  6  7  1  6
  6  8  1  0
  8  9  1  1
  8 10  1  0
 10 11  1  1
 11 12  1  0
 12 13  1  0
 13 14  1  0
 14 15  1  1
 14 16  1  0
 16 17  1  0
 14 18  1  0
 18 19  1  6
 18 20  1  0
 20 21  1  0
 20 22  1  0
 22 23  1  0
 23 24  1  0
 24 25  1  0
 10  2  1  0
M  RAD  4  12   2  19   3  22   2  23   2
M  END
>  <docking_score>  (3) 
-2.2490000000000001

$$$$
