
     RDKit          3D

 77 77  0  0  0  0  0  0  0  0999 V2000
   13.2835    4.0267   18.9912 C   0  0  0  0  0  0  0  0  0  0  0  0
   13.3698    4.3944   17.5395 C   0  0  0  0  0  0  0  0  0  0  0  0
   12.2422    4.0531   16.6111 C   0  0  0  0  0  0  0  0  0  0  0  0
   14.5837    5.1033   17.0163 C   0  0  0  0  0  0  0  0  0  0  0  0
   15.3395    4.5362   15.8513 C   0  0  0  0  0  0  0  0  0  0  0  0
   16.6842    3.9066   16.0644 C   0  0  0  0  0  0  0  0  0  0  0  0
   17.0334    2.6279   15.3622 C   0  0  0  0  0  0  0  0  0  0  0  0
   16.6002    1.3128   15.9392 C   0  0  0  0  0  0  0  0  0  0  0  0
   17.8158    2.6643   14.0829 C   0  0  0  0  0  3  0  0  0  0  0  0
   17.1591    3.1236   12.8149 C   0  0  0  0  0  0  0  0  0  0  0  0
   15.7000    2.8598   12.5879 C   0  0  0  0  0  0  0  0  0  0  0  0
   15.1804    2.6689   11.1938 C   0  0  0  0  0  0  0  0  0  0  0  0
   15.5178    1.4218   10.4319 C   0  0  0  0  0  0  0  0  0  0  0  0
   14.3233    3.7252   10.5617 C   0  0  0  0  0  0  0  0  0  0  0  0
   14.1166    4.7249   11.6607 C   0  0  0  0  0  0  0  0  0  0  0  0
   14.8747    4.1471   12.8189 C   0  0  0  0  0  2  0  0  0  0  0  0
   13.5469    6.0012   12.2054 C   0  0  0  0  0  3  0  0  0  0  0  0
   12.7450    7.2616   12.0710 C   0  0  0  0  0  0  0  0  0  0  0  0
   11.8943    8.2175   11.2883 C   0  0  0  0  0  0  0  0  0  0  0  0
   11.5888    9.3114   12.2681 O   0  0  0  0  0  0  0  0  0  0  0  0
   11.1899    8.6499   10.0365 C   0  0  0  0  0  3  0  0  0  0  0  0
   10.7930    8.4596    8.6025 C   0  0  0  0  0  0  0  0  0  0  0  0
   10.7947    7.6904    7.3148 C   0  0  0  0  0  0  0  0  0  0  0  0
    9.9629    8.5319    6.3928 C   0  0  0  0  0  2  0  0  0  0  0  0
   11.1945    6.5183    6.4683 O   0  0  0  0  0  0  0  0  0  0  0  0
   11.9008    5.2120    6.2570 C   0  0  0  0  0  3  0  0  0  0  0  0
   12.7519    4.0706    6.7294 C   0  0  0  0  0  0  0  0  0  0  0  0
   13.5527    3.3557    7.7770 S   0  0  0  0  0  0  0  0  0  0  0  0
   14.1198    3.2311    9.1601 C   0  0  0  0  0  0  0  0  0  0  0  0
   14.8795    1.9383    9.1214 C   0  0  0  0  0  0  0  0  0  0  0  0
   15.1197    1.2485    7.8112 C   0  0  0  0  0  3  0  0  0  0  0  0
   13.9947    0.5350    7.1219 C   0  0  0  0  0  0  0  0  0  0  0  0
   12.5952    1.0649    7.2255 C   0  0  0  0  0  0  0  0  0  0  0  0
   12.1192    2.1180    6.2693 C   0  0  0  0  0  2  0  0  0  0  0  0
   11.6717    0.5415    8.2854 C   0  0  0  0  0  0  0  0  0  0  0  0
   10.3679   -0.0914    7.8984 C   0  0  0  0  0  0  0  0  0  0  0  0
   10.2533   -0.8416    6.6045 C   0  0  0  0  0  0  0  0  0  0  0  0
    9.1789    0.0260    8.8052 C   0  0  0  0  0  0  0  0  0  0  0  0
    7.7924   -0.0597    8.2390 C   0  0  0  0  0  2  0  0  0  0  0  0
    9.3762    0.2289   10.2783 O   0  0  0  0  0  0  0  0  0  0  0  0
    9.4067    1.6167   10.8467 C   0  0  0  0  0  2  0  0  0  0  0  0
   14.2691   -0.7082    6.3289 C   0  0  0  0  0  0  0  0  0  0  0  0
   15.1711   -0.6505    5.1318 C   0  0  0  0  0  0  0  0  0  0  0  0
   16.1125    0.5043    4.9571 C   0  0  0  0  0  2  0  0  0  0  0  0
   15.1318   -1.7474    4.1095 C   0  0  0  0  0  3  0  0  0  0  0  0
   14.1511   -1.6818    2.9764 C   0  0  0  0  0  0  0  0  0  0  0  0
   14.6413   -1.5120    1.5690 C   0  0  0  0  0  3  0  0  0  0  0  0
   16.0429   -1.9081    1.2100 C   0  0  0  0  0  2  0  0  0  0  0  0
   16.6293   -3.1735    1.7619 C   0  0  0  0  0  3  0  0  0  0  0  0
   16.8218   -4.3629    0.8684 C   0  0  0  0  0  0  0  0  0  0  0  0
   16.9802   -4.1718   -0.6110 C   0  0  0  0  0  3  0  0  0  0  0  0
   15.9639   -4.7440   -1.5542 C   0  0  0  0  0  0  0  0  0  0  0  0
   15.8804   -4.2380   -2.9639 C   0  0  0  0  0  0  0  0  0  0  0  0
   17.1220   -3.7837   -3.6724 C   0  0  0  0  0  3  0  0  0  0  0  0
   18.1854   -3.0401   -2.9200 C   0  0  0  0  0  3  0  0  0  0  0  0
   19.5429   -2.8517   -3.5296 C   0  0  0  0  0  0  0  0  0  0  0  0
   19.7422   -3.0733   -4.9997 C   0  0  0  0  0  3  0  0  0  0  0  0
   20.2671   -4.3880   -5.4958 C   0  0  0  0  0  0  0  0  0  0  0  0
   19.3886   -5.2847   -6.3168 C   0  0  0  0  0  0  0  0  0  0  0  0
   17.9232   -4.9893   -6.4418 C   0  0  0  0  0  0  0  0  0  0  0  0
   17.4318   -4.0776   -7.5269 C   0  0  0  0  0  0  0  0  0  0  0  0
   16.1339   -4.3684   -8.2202 C   0  0  0  0  0  2  0  0  0  0  0  0
   18.2384   -2.8750   -7.9186 C   0  0  0  0  0  3  0  0  0  0  0  0
   18.3414   -1.7048   -6.9860 C   0  0  0  0  0  3  0  0  0  0  0  0
   17.1269   -0.8790   -6.6818 C   0  0  0  0  0  3  0  0  0  0  0  0
   15.9261   -1.5164   -6.0478 C   0  0  0  0  0  0  0  0  0  0  0  0
   16.0986   -2.4574   -4.8925 C   0  0  0  0  0  2  0  0  0  0  0  0
   14.5527   -1.2128   -6.5691 C   0  0  0  0  0  0  0  0  0  0  0  0
   13.6699   -0.2452   -5.8380 C   0  0  0  0  0  0  0  0  0  0  0  0
   13.3894   -0.4419   -4.3776 C   0  0  0  0  0  0  0  0  0  0  0  0
   14.5178   -0.7115   -3.4268 C   0  0  0  0  0  0  0  0  0  0  0  0
   11.9805   -0.3690   -3.8680 C   0  0  0  0  0  3  0  0  0  0  0  0
   10.8504   -0.8805   -4.7115 S   0  0  0  0  0  0  0  0  0  0  0  0
    9.4440   -0.8282   -4.1927 C   0  0  0  0  0  3  0  0  0  0  0  0
    8.2966   -0.6888   -5.1487 O   0  0  0  0  0  0  0  0  0  0  0  0
    7.8591    0.6724   -5.6019 C   0  0  0  0  0  3  0  0  0  0  0  0
    6.4159    1.0687   -5.5008 C   0  0  0  0  0  0  0  0  0  0  0  0
  1  2  1  0
  2  3  1  0
  2  4  1  0
  4  5  1  0
  5  6  1  0
  6  7  1  0
  7  8  1  0
  7  9  1  0
  9 10  1  0
 10 11  1  0
 11 12  1  0
 12 13  1  0
 12 14  1  0
 14 15  1  0
 15 16  1  0
 15 17  1  0
 17 18  1  0
 18 19  1  0
 19 20  1  0
 19 21  1  0
 21 22  1  0
 22 23  1  0
 23 24  1  0
 23 25  1  0
 25 26  1  0
 26 27  1  0
 27 28  1  0
 28 29  1  0
 29 30  1  0
 30 31  1  0
 31 32  1  0
 32 33  1  0
 33 34  1  0
 33 35  1  0
 35 36  1  0
 36 37  1  0
 36 38  1  0
 38 39  1  0
 38 40  1  0
 40 41  1  0
 32 42  1  0
 42 43  1  0
 43 44  1  0
 43 45  1  0
 45 46  1  0
 46 47  1  0
 47 48  1  0
 48 49  1  0
 49 50  1  0
 50 51  1  0
 51 52  1  0
 52 53  1  0
 53 54  1  0
 54 55  1  0
 55 56  1  0
 56 57  1  0
 57 58  1  0
 58 59  1  0
 59 60  1  0
 60 61  1  0
 61 62  1  0
 61 63  1  0
 63 64  1  0
 64 65  1  0
 65 66  1  0
 66 67  1  0
 66 68  1  0
 68 69  1  0
 69 70  1  0
 70 71  1  0
 70 72  1  0
 72 73  1  0
 73 74  1  0
 74 75  1  0
 75 76  1  0
 76 77  1  0
 29 14  1  0
M  RAD  8   9   2  16   3  17   2  21   2  24   3  26   2  31   2  34   3
M  RAD  8  39   3  41   3  44   3  45   2  47   2  48   3  49   2  51   2
M  RAD  8  54   2  55   2  57   2  62   3  63   2  64   2  65   2  67   3
M  RAD  3  72   2  74   2  76   2
M  END
>  <docking_score>  (1) 
75.712999999999994

$$$$
