
     RDKit          3D

 24 25  0  0  0  0  0  0  0  0999 V2000
    5.1759   10.5177    6.3579 C   0  0  0  0  0  0  0  0  0  0  0  0
    5.7613    9.5691    5.3686 C   0  0  1  0  0  0  0  0  0  0  0  0
    4.8571    8.4448    4.9943 C   0  0  0  0  0  0  0  0  0  0  0  0
    3.7851    8.9231    4.0530 C   0  0  2  0  0  0  0  0  0  0  0  0
    3.2043    7.8356    3.4165 O   0  0  0  0  0  0  0  0  0  0  0  0
    4.2799    9.9716    3.1057 C   0  0  2  0  0  0  0  0  0  0  0  0
    3.6141    9.8776    1.8960 O   0  0  0  0  0  0  0  0  0  0  0  0
    5.7787    9.8221    2.9582 C   0  0  1  0  0  0  0  0  0  0  0  0
    6.2571   10.4677    1.8451 O   0  0  0  0  0  0  0  0  0  0  0  0
    6.4552   10.2085    4.2260 C   0  0  1  0  0  0  0  0  0  0  0  0
    6.6435   11.5980    4.4463 N   0  0  0  0  0  0  0  0  0  0  0  0
    7.4127   12.3037    3.4655 C   0  0  0  0  0  3  0  0  0  0  0  0
    6.8719   13.7330    3.2909 C   0  0  1  0  0  0  0  0  0  0  0  0
    5.3769   13.6825    3.0280 C   0  0  0  0  0  0  0  0  0  0  0  0
    4.6530   14.1822    4.1005 O   0  0  0  0  0  0  0  0  0  0  0  0
    3.5004   13.4879    4.3795 C   0  0  0  0  0  0  0  0  0  0  0  0
    7.1706   14.3948    4.4539 O   0  0  0  0  0  0  0  0  0  0  0  0
    7.5822   15.6252    4.2702 O   0  0  0  0  0  0  0  0  0  0  0  0
    8.8085   15.7087    3.6618 C   0  0  1  0  0  0  0  0  0  0  0  0
    9.8685   15.5728    4.5737 O   0  0  0  0  0  0  0  0  0  0  0  0
    8.9655   14.7109    2.5346 C   0  0  2  0  0  0  0  0  0  0  0  0
    9.7111   15.2372    1.4835 O   0  0  0  0  0  0  0  0  0  0  0  0
    7.5747   14.3194    2.0914 C   0  0  1  0  0  0  0  0  0  0  0  0
    7.5580   13.4753    1.0040 O   0  0  0  0  0  0  0  0  0  0  0  0
  2  1  1  6
  2  3  1  0
  3  4  1  0
  4  5  1  6
  4  6  1  0
  6  7  1  6
  6  8  1  0
  8  9  1  6
  8 10  1  0
 10 11  1  1
 11 12  1  0
 13 12  1  1
 13 14  1  0
 14 15  1  0
 15 16  1  0
 13 17  1  0
 17 18  1  0
 18 19  1  0
 19 20  1  1
 19 21  1  0
 21 22  1  6
 21 23  1  0
 23 24  1  6
 10  2  1  0
 23 13  1  0
M  RAD  1  12   2
M  END
>  <docking_score>  (1) 
-4.9279999999999999

$$$$

     RDKit          3D

 24 25  0  0  0  0  0  0  0  0999 V2000
   19.6427   -5.0273   -2.5939 C   0  0  0  0  0  0  0  0  0  0  0  0
   18.8512   -3.9215   -1.9841 C   0  0  1  0  0  0  0  0  0  0  0  0
   19.6800   -2.8135   -1.4296 C   0  0  0  0  0  0  0  0  0  0  0  0
   20.2174   -1.9523   -2.5402 C   0  0  2  0  0  0  0  0  0  0  0  0
   20.6439   -0.7373   -2.0233 O   0  0  0  0  0  0  0  0  0  0  0  0
   19.2503   -1.8091   -3.6741 C   0  0  2  0  0  0  0  0  0  0  0  0
   19.3915   -0.5685   -4.2712 O   0  0  0  0  0  0  0  0  0  0  0  0
   17.8507   -2.0465   -3.1493 C   0  0  1  0  0  0  0  0  0  0  0  0
   16.8886   -1.5686   -4.0041 O   0  0  0  0  0  0  0  0  0  0  0  0
   17.6824   -3.4781   -2.7800 C   0  0  1  0  0  0  0  0  0  0  0  0
   17.4072   -4.3789   -3.8417 N   0  0  0  0  0  0  0  0  0  0  0  0
   16.1149   -4.9967   -3.8388 C   0  0  0  0  0  3  0  0  0  0  0  0
   15.6862   -5.3435   -5.2748 C   0  0  1  0  0  0  0  0  0  0  0  0
   14.4395   -4.5554   -5.6375 C   0  0  0  0  0  0  0  0  0  0  0  0
   14.5784   -3.9149   -6.8599 O   0  0  0  0  0  0  0  0  0  0  0  0
   14.9786   -2.6034   -6.7707 C   0  0  0  0  0  0  0  0  0  0  0  0
   16.7521   -5.0227   -6.0753 O   0  0  0  0  0  0  0  0  0  0  0  0
   16.9808   -5.8965   -7.0246 O   0  0  0  0  0  0  0  0  0  0  0  0
   17.4257   -7.1078   -6.5602 C   0  0  1  0  0  0  0  0  0  0  0  0
   18.8110   -7.1152   -6.3266 O   0  0  0  0  0  0  0  0  0  0  0  0
   16.6896   -7.5576   -5.3166 C   0  0  2  0  0  0  0  0  0  0  0  0
   16.5063   -8.9375   -5.2996 O   0  0  0  0  0  0  0  0  0  0  0  0
   15.3715   -6.8190   -5.2895 C   0  0  1  0  0  0  0  0  0  0  0  0
   14.5487   -7.1943   -4.2515 O   0  0  0  0  0  0  0  0  0  0  0  0
  2  1  1  6
  2  3  1  0
  3  4  1  0
  4  5  1  1
  4  6  1  0
  6  7  1  1
  6  8  1  0
  8  9  1  6
  8 10  1  0
 10 11  1  6
 11 12  1  0
 13 12  1  1
 13 14  1  0
 14 15  1  0
 15 16  1  0
 13 17  1  0
 17 18  1  0
 18 19  1  0
 19 20  1  1
 19 21  1  0
 21 22  1  6
 21 23  1  0
 23 24  1  1
 10  2  1  0
 23 13  1  0
M  RAD  1  12   2
M  END
>  <docking_score>  (2) 
-4.8799999999999999

$$$$

     RDKit          3D

 24 25  0  0  0  0  0  0  0  0999 V2000
   17.0245   -1.5623   -4.7667 C   0  0  0  0  0  0  0  0  0  0  0  0
   18.4793   -1.8770   -4.6909 C   0  0  1  0  0  0  0  0  0  0  0  0
   19.2305   -1.0497   -3.7044 C   0  0  0  0  0  0  0  0  0  0  0  0
   18.9523   -1.5210   -2.3028 C   0  0  2  0  0  0  0  0  0  0  0  0
   19.9228   -1.0262   -1.4433 O   0  0  0  0  0  0  0  0  0  0  0  0
   18.7863   -3.0066   -2.2195 C   0  0  2  0  0  0  0  0  0  0  0  0
   19.2378   -3.4719   -0.9968 O   0  0  0  0  0  0  0  0  0  0  0  0
   19.5110   -3.6406   -3.3872 C   0  0  1  0  0  0  0  0  0  0  0  0
   19.7394   -4.9799   -3.1900 O   0  0  0  0  0  0  0  0  0  0  0  0
   18.8042   -3.3225   -4.6574 C   0  0  1  0  0  0  0  0  0  0  0  0
   17.6687   -4.1157   -4.9672 N   0  0  0  0  0  0  0  0  0  0  0  0
   17.7469   -4.9089   -6.1574 C   0  0  0  0  0  3  0  0  0  0  0  0
   16.8611   -6.1594   -6.0241 C   0  0  1  0  0  0  0  0  0  0  0  0
   17.7355   -7.3794   -5.7921 C   0  0  0  0  0  0  0  0  0  0  0  0
   19.0819   -7.0466   -5.7751 O   0  0  0  0  0  0  0  0  0  0  0  0
   19.9331   -8.1225   -5.8528 C   0  0  0  0  0  0  0  0  0  0  0  0
   16.0210   -5.9167   -4.9681 O   0  0  0  0  0  0  0  0  0  0  0  0
   14.7908   -6.3207   -5.1690 O   0  0  0  0  0  0  0  0  0  0  0  0
   14.1279   -5.6038   -6.1320 C   0  0  1  0  0  0  0  0  0  0  0  0
   13.5729   -4.4158   -5.6277 O   0  0  0  0  0  0  0  0  0  0  0  0
   15.0002   -5.2984   -7.3306 C   0  0  2  0  0  0  0  0  0  0  0  0
   14.2734   -5.3360   -8.5172 O   0  0  0  0  0  0  0  0  0  0  0  0
   16.1232   -6.3098   -7.3315 C   0  0  1  0  0  0  0  0  0  0  0  0
   16.9560   -6.2103   -8.4231 O   0  0  0  0  0  0  0  0  0  0  0  0
  2  1  1  1
  2  3  1  0
  3  4  1  0
  4  5  1  1
  4  6  1  0
  6  7  1  1
  6  8  1  0
  8  9  1  1
  8 10  1  0
 10 11  1  1
 11 12  1  0
 13 12  1  6
 13 14  1  0
 14 15  1  0
 15 16  1  0
 13 17  1  0
 17 18  1  0
 18 19  1  0
 19 20  1  1
 19 21  1  0
 21 22  1  6
 21 23  1  0
 23 24  1  6
 10  2  1  0
 23 13  1  0
M  RAD  1  12   2
M  END
>  <docking_score>  (3) 
-4.5709999999999997

$$$$
