
     RDKit          3D

 23 25  0  0  0  0  0  0  0  0999 V2000
   20.0958   -0.6920   -3.3214 C   0  0  0  0  0  0  0  0  0  0  0  0
   19.2984   -0.6110   -4.4766 C   0  0  0  0  0  0  0  0  0  0  0  0
   18.4876   -0.6362   -5.3208 C   0  0  0  0  0  0  0  0  0  0  0  0
   17.2052   -0.9393   -5.8508 C   0  0  0  0  0  0  0  0  0  0  0  0
   16.3354   -1.8360   -5.4374 C   0  0  0  0  0  0  0  0  0  0  0  0
   15.0448   -2.1412   -5.9702 C   0  0  0  0  0  0  0  0  0  0  0  0
   13.9374   -1.6216   -5.2445 N   0  0  0  0  0  0  0  0  0  0  0  0
   16.8050   -2.6249   -4.2177 C   0  0  0  0  0  0  0  0  0  0  0  0
   16.3197   -3.8802   -3.8537 C   0  0  2  0  0  0  0  0  0  0  0  0
   17.6999   -1.9140   -3.5522 C   0  0  0  0  0  0  0  0  0  0  0  0
   18.4085   -2.1560   -2.4414 C   0  0  0  0  0  0  0  0  0  0  0  0
   19.6279   -1.5739   -2.2803 C   0  0  0  0  0  0  0  0  0  0  0  0
   20.3223   -2.0841   -1.0821 C   0  0  0  0  0  0  0  0  0  0  0  0
   20.3129   -3.4894   -1.0177 C   0  0  0  0  0  0  0  0  0  0  0  0
   19.7215   -4.2986   -1.9838 C   0  0  0  0  0  0  0  0  0  0  0  0
   18.5833   -4.5806   -2.4490 C   0  0  0  0  0  0  0  0  0  0  0  0
   17.0347   -3.7982   -1.7892 S   0  0  2  0  0  0  0  0  0  0  0  0
   16.0245   -4.4987   -0.8165 Cl  0  0  0  0  0  0  0  0  0  0  0  0
   18.1049   -5.3993   -3.5668 C   0  0  0  0  0  0  0  0  0  0  0  0
   16.8622   -5.1690   -3.9004 C   0  0  0  0  0  0  0  0  0  0  0  0
   16.0689   -6.3821   -4.3319 C   0  0  0  0  0  0  0  0  0  0  0  0
   15.7720   -6.5679   -5.5673 C   0  0  0  0  0  0  0  0  0  0  0  0
   16.1063   -5.7228   -6.7126 C   0  0  0  0  0  0  0  0  0  0  0  0
  1  2  1  0
  2  3  2  3
  3  4  1  0
  4  5  2  3
  5  6  1  0
  6  7  1  0
  5  8  1  0
  8  9  1  0
  8 10  2  3
 10 11  1  0
 11 12  2  3
 12 13  1  0
 13 14  2  3
 14 15  1  0
 15 16  2  3
 16 17  1  0
 17 18  1  1
 16 19  1  0
 19 20  2  0
 20 21  1  0
 21 22  2  3
 22 23  1  0
 12  1  1  0
 17  9  1  0
  9 20  1  6
M  END
>  <docking_score>  (1) 
-6.2569999999999997

$$$$

     RDKit          3D

 23 25  0  0  0  0  0  0  0  0999 V2000
   15.7349   -6.6878   -5.0386 C   0  0  0  0  0  0  0  0  0  0  0  0
   16.8227   -6.4638   -4.1765 C   0  0  0  0  0  0  0  0  0  0  0  0
   17.6454   -6.0863   -3.4340 C   0  0  0  0  0  0  0  0  0  0  0  0
   18.2558   -5.1236   -2.5865 C   0  0  0  0  0  0  0  0  0  0  0  0
   18.1371   -3.8134   -2.6111 C   0  0  0  0  0  0  0  0  0  0  0  0
   18.7509   -2.8443   -1.7585 C   0  0  0  0  0  0  0  0  0  0  0  0
   19.8213   -3.3200   -0.9516 N   0  0  0  0  0  0  0  0  0  0  0  0
   17.2016   -3.3056   -3.7054 C   0  0  0  0  0  0  0  0  0  0  0  0
   17.2323   -2.0166   -4.2359 C   0  0  2  0  0  0  0  0  0  0  0  0
   16.3450   -4.2599   -4.0291 C   0  0  0  0  0  0  0  0  0  0  0  0
   15.3483   -4.3211   -4.9221 C   0  0  0  0  0  0  0  0  0  0  0  0
   15.0080   -5.5192   -5.4703 C   0  0  0  0  0  0  0  0  0  0  0  0
   14.0077   -5.3636   -6.5443 C   0  0  0  0  0  0  0  0  0  0  0  0
   14.3637   -4.3603   -7.4639 C   0  0  0  0  0  0  0  0  0  0  0  0
   15.5331   -3.6110   -7.3687 C   0  0  0  0  0  0  0  0  0  0  0  0
   16.0737   -2.7464   -6.6261 C   0  0  0  0  0  0  0  0  0  0  0  0
   15.2288   -2.0938   -5.1077 S   0  0  2  0  0  0  0  0  0  0  0  0
   14.5194   -0.6993   -5.0098 Cl  0  0  0  0  0  0  0  0  0  0  0  0
   17.3896   -2.1014   -6.5907 C   0  0  0  0  0  0  0  0  0  0  0  0
   17.6536   -1.4943   -5.4636 C   0  0  0  0  0  0  0  0  0  0  0  0
   18.4347   -0.2052   -5.5864 C   0  0  0  0  0  0  0  0  0  0  0  0
   19.6672   -0.1471   -5.2305 C   0  0  0  0  0  0  0  0  0  0  0  0
   20.4990   -1.2163   -4.6807 C   0  0  0  0  0  0  0  0  0  0  0  0
  1  2  1  0
  2  3  2  3
  3  4  1  0
  4  5  2  3
  5  6  1  0
  6  7  1  0
  5  8  1  0
  8  9  1  0
  8 10  2  3
 10 11  1  0
 11 12  2  3
 12 13  1  0
 13 14  2  3
 14 15  1  0
 15 16  2  3
 16 17  1  0
 17 18  1  6
 16 19  1  0
 19 20  2  0
 20 21  1  0
 21 22  2  3
 22 23  1  0
 12  1  1  0
 17  9  1  0
  9 20  1  6
M  END
>  <docking_score>  (2) 
-5.8689999999999998

$$$$

     RDKit          3D

 23 25  0  0  0  0  0  0  0  0999 V2000
   14.3794   -3.4791   -6.1397 C   0  0  0  0  0  0  0  0  0  0  0  0
   15.0359   -2.2440   -5.9970 C   0  0  0  0  0  0  0  0  0  0  0  0
   15.7578   -1.3306   -5.8734 C   0  0  0  0  0  0  0  0  0  0  0  0
   17.0327   -0.7211   -5.7300 C   0  0  0  0  0  0  0  0  0  0  0  0
   18.1529   -1.2515   -5.2881 C   0  0  0  0  0  0  0  0  0  0  0  0
   19.4360   -0.6387   -5.1438 C   0  0  0  0  0  0  0  0  0  0  0  0
   19.4928    0.7529   -5.4326 N   0  0  0  0  0  0  0  0  0  0  0  0
   18.0201   -2.7217   -4.8988 C   0  0  0  0  0  0  0  0  0  0  0  0
   18.8748   -3.3869   -4.0207 C   0  0  2  0  0  0  0  0  0  0  0  0
   17.0054   -3.2601   -5.5542 C   0  0  0  0  0  0  0  0  0  0  0  0
   16.4774   -4.4913   -5.5583 C   0  0  0  0  0  0  0  0  0  0  0  0
   15.1556   -4.6563   -5.8361 C   0  0  0  0  0  0  0  0  0  0  0  0
   14.7256   -6.0535   -5.6338 C   0  0  0  0  0  0  0  0  0  0  0  0
   15.1491   -6.5682   -4.3949 C   0  0  0  0  0  0  0  0  0  0  0  0
   15.8820   -5.8326   -3.4677 C   0  0  0  0  0  0  0  0  0  0  0  0
   17.0176   -5.3007   -3.3306 C   0  0  0  0  0  0  0  0  0  0  0  0
   18.3126   -5.4017   -4.6567 S   0  0  2  0  0  0  0  0  0  0  0  0
   19.5485   -6.3656   -4.6268 Cl  0  0  0  0  0  0  0  0  0  0  0  0
   17.6350   -4.4459   -2.3124 C   0  0  0  0  0  0  0  0  0  0  0  0
   18.7301   -3.8526   -2.7094 C   0  0  0  0  0  0  0  0  0  0  0  0
   19.8107   -3.7121   -1.6608 C   0  0  0  0  0  0  0  0  0  0  0  0
   20.1067   -2.5621   -1.1721 C   0  0  0  0  0  0  0  0  0  0  0  0
   19.5167   -1.2646   -1.4972 C   0  0  0  0  0  0  0  0  0  0  0  0
  1  2  1  0
  2  3  2  3
  3  4  1  0
  4  5  2  3
  5  6  1  0
  6  7  1  0
  5  8  1  0
  8  9  1  0
  8 10  2  3
 10 11  1  0
 11 12  2  3
 12 13  1  0
 13 14  2  3
 14 15  1  0
 15 16  2  3
 16 17  1  0
 17 18  1  1
 16 19  1  0
 19 20  2  0
 20 21  1  0
 21 22  2  3
 22 23  1  0
 12  1  1  0
 17  9  1  0
  9 20  1  1
M  END
>  <docking_score>  (3) 
-5.6849999999999996

$$$$
