
     RDKit          3D

 27 28  0  0  0  0  0  0  0  0999 V2000
   17.2073  -11.5845   -7.1242 C   0  0  0  0  0  0  0  0  0  0  0  0
   17.1951  -10.2747   -6.3844 C   0  0  0  0  0  0  0  0  0  0  0  0
   16.8346  -10.2172   -5.2015 O   0  0  0  0  0  0  0  0  0  0  0  0
   17.5885   -9.1118   -7.0192 O   0  0  0  0  0  0  0  0  0  0  0  0
   18.3292   -8.0809   -6.4557 C   0  0  0  0  0  3  0  0  0  0  0  0
   19.7481   -8.3519   -6.2189 C   0  0  0  0  0  0  0  0  0  0  0  0
   20.7030   -8.5582   -7.3613 C   0  0  0  0  0  0  0  0  0  0  0  0
   20.2390   -8.4264   -5.0948 O   0  0  0  0  0  0  0  0  0  0  0  0
   17.6785   -7.5608   -5.2200 C   0  0  0  0  0  0  0  0  0  0  0  0
   17.0532   -6.2109   -5.4223 C   0  0  1  0  0  0  0  0  0  0  0  0
   17.9877   -5.3002   -6.1884 C   0  0  0  0  0  3  0  0  0  0  0  0
   17.4694   -3.8751   -5.9520 C   0  0  2  0  0  0  0  0  0  0  0  0
   17.7150   -3.6122   -4.4620 C   0  0  0  0  0  0  0  0  0  0  0  0
   17.2250   -2.2690   -4.0328 C   0  0  2  0  0  0  0  0  0  0  0  0
   18.3225   -1.2957   -3.7421 C   0  0  0  0  0  0  0  0  0  0  0  0
   16.3328   -2.3065   -2.9721 O   0  0  0  0  0  0  0  0  0  0  0  0
   15.2364   -1.4807   -3.1526 C   0  0  0  0  0  0  0  0  0  0  0  0
   14.9237   -1.2485   -4.5928 C   0  0  0  0  0  0  0  0  0  0  0  0
   13.7469   -1.2727   -4.9121 O   0  0  0  0  0  0  0  0  0  0  0  0
   15.9807   -0.9969   -5.6116 C   0  0  0  0  0  0  0  0  0  0  0  0
   15.5621   -1.5817   -6.8824 C   0  0  0  0  0  0  0  0  0  0  0  0
   15.5687   -2.8527   -7.2109 C   0  0  0  0  0  0  0  0  0  0  0  0
   15.1003   -3.2345   -8.5589 C   0  0  0  0  0  0  0  0  0  0  0  0
   16.0199   -3.8835   -6.2927 C   0  0  2  0  0  0  0  0  0  0  0  0
   15.1036   -4.2147   -5.1692 C   0  0  0  0  0  0  0  0  0  0  0  0
   14.6508   -5.6518   -5.3195 C   0  0  0  0  0  0  0  0  0  0  0  0
   15.7203   -6.3801   -6.1013 C   0  0  0  0  0  3  0  0  0  0  0  0
  1  2  1  0
  2  3  2  0
  2  4  1  0
  4  5  1  0
  5  6  1  0
  6  7  1  0
  6  8  2  0
  5  9  1  0
 10  9  1  6
 10 11  1  0
 12 11  1  1
 12 13  1  0
 13 14  1  0
 14 15  1  1
 14 16  1  0
 16 17  1  0
 17 18  1  0
 18 19  2  0
 18 20  1  0
 20 21  1  0
 21 22  2  3
 22 23  1  0
 22 24  1  0
 24 25  1  1
 25 26  1  0
 26 27  1  0
 27 10  1  0
 24 12  1  0
M  RAD  3   5   2  11   2  27   2
M  END
>  <docking_score>  (1) 
-5.1319999999999997

$$$$

     RDKit          3D

 27 28  0  0  0  0  0  0  0  0999 V2000
   21.2939   -4.8104   -4.6967 C   0  0  0  0  0  0  0  0  0  0  0  0
   20.4966   -5.5504   -3.6576 C   0  0  0  0  0  0  0  0  0  0  0  0
   20.9091   -5.6522   -2.4948 O   0  0  0  0  0  0  0  0  0  0  0  0
   19.2863   -6.1295   -3.9893 O   0  0  0  0  0  0  0  0  0  0  0  0
   19.0858   -7.4521   -4.3625 C   0  0  0  0  0  3  0  0  0  0  0  0
   20.2579   -8.1734   -4.8614 C   0  0  0  0  0  0  0  0  0  0  0  0
   20.6029   -8.1818   -6.3243 C   0  0  0  0  0  0  0  0  0  0  0  0
   21.0186   -8.8048   -4.1314 O   0  0  0  0  0  0  0  0  0  0  0  0
   17.9452   -7.5784   -5.3133 C   0  0  0  0  0  0  0  0  0  0  0  0
   17.2310   -6.2761   -5.5327 C   0  0  1  0  0  0  0  0  0  0  0  0
   18.0224   -5.3848   -6.4647 C   0  0  0  0  0  3  0  0  0  0  0  0
   17.4607   -3.9702   -6.2674 C   0  0  2  0  0  0  0  0  0  0  0  0
   17.8615   -3.5865   -4.8386 C   0  0  0  0  0  0  0  0  0  0  0  0
   17.3542   -2.2379   -4.4479 C   0  0  2  0  0  0  0  0  0  0  0  0
   18.4254   -1.1984   -4.3568 C   0  0  0  0  0  0  0  0  0  0  0  0
   16.5929   -2.2355   -3.2892 O   0  0  0  0  0  0  0  0  0  0  0  0
   15.4413   -1.4745   -3.3952 C   0  0  0  0  0  0  0  0  0  0  0  0
   14.9536   -1.3642   -4.8009 C   0  0  0  0  0  0  0  0  0  0  0  0
   13.7509   -1.4639   -4.9764 O   0  0  0  0  0  0  0  0  0  0  0  0
   15.8721   -1.1430   -5.9523 C   0  0  0  0  0  0  0  0  0  0  0  0
   15.3417   -1.8386   -7.1215 C   0  0  0  0  0  0  0  0  0  0  0  0
   15.3771   -3.1290   -7.3602 C   0  0  0  0  0  0  0  0  0  0  0  0
   14.7777   -3.6304   -8.6139 C   0  0  0  0  0  0  0  0  0  0  0  0
   15.9841   -4.0678   -6.4330 C   0  0  2  0  0  0  0  0  0  0  0  0
   15.2213   -4.3543   -5.1889 C   0  0  0  0  0  0  0  0  0  0  0  0
   14.8302   -5.8172   -5.1853 C   0  0  0  0  0  0  0  0  0  0  0  0
   15.8396   -6.5539   -6.0361 C   0  0  0  0  0  3  0  0  0  0  0  0
  1  2  1  0
  2  3  2  0
  2  4  1  0
  4  5  1  0
  5  6  1  0
  6  7  1  0
  6  8  2  0
  5  9  1  0
 10  9  1  6
 10 11  1  0
 12 11  1  1
 12 13  1  0
 13 14  1  0
 14 15  1  1
 14 16  1  0
 16 17  1  0
 17 18  1  0
 18 19  2  0
 18 20  1  0
 20 21  1  0
 21 22  2  3
 22 23  1  0
 22 24  1  0
 24 25  1  1
 25 26  1  0
 26 27  1  0
 27 10  1  0
 24 12  1  0
M  RAD  3   5   2  11   2  27   2
M  END
>  <docking_score>  (2) 
-5.0339999999999998

$$$$

     RDKit          3D

 27 28  0  0  0  0  0  0  0  0999 V2000
   18.1658   -1.7956   -7.0238 C   0  0  0  0  0  0  0  0  0  0  0  0
   18.1862   -1.5871   -5.5341 C   0  0  0  0  0  0  0  0  0  0  0  0
   19.2004   -1.8418   -4.8715 O   0  0  0  0  0  0  0  0  0  0  0  0
   17.0668   -1.1057   -4.8821 O   0  0  0  0  0  0  0  0  0  0  0  0
   15.8215   -1.7186   -4.8308 C   0  0  0  0  0  3  0  0  0  0  0  0
   14.6674   -0.8357   -4.6529 C   0  0  0  0  0  0  0  0  0  0  0  0
   14.0700   -0.0911   -5.8138 C   0  0  0  0  0  0  0  0  0  0  0  0
   14.1248   -0.6509   -3.5659 O   0  0  0  0  0  0  0  0  0  0  0  0
   15.8022   -2.8200   -3.8272 C   0  0  0  0  0  0  0  0  0  0  0  0
   16.4749   -4.0662   -4.3261 C   0  0  1  0  0  0  0  0  0  0  0  0
   16.7446   -5.0202   -3.1831 C   0  0  0  0  0  3  0  0  0  0  0  0
   17.7958   -6.0098   -3.7038 C   0  0  2  0  0  0  0  0  0  0  0  0
   19.0644   -5.1699   -3.8904 C   0  0  0  0  0  0  0  0  0  0  0  0
   20.1991   -5.9678   -4.4422 C   0  0  2  0  0  0  0  0  0  0  0  0
   21.2808   -6.2390   -3.4460 C   0  0  0  0  0  0  0  0  0  0  0  0
   20.7459   -5.4426   -5.6031 O   0  0  0  0  0  0  0  0  0  0  0  0
   20.9832   -6.3993   -6.5751 C   0  0  0  0  0  0  0  0  0  0  0  0
   20.0786   -7.5793   -6.4520 C   0  0  0  0  0  0  0  0  0  0  0  0
   19.6171   -8.0303   -7.4869 O   0  0  0  0  0  0  0  0  0  0  0  0
   19.7399   -8.1954   -5.1390 C   0  0  0  0  0  0  0  0  0  0  0  0
   18.3696   -8.6972   -5.1909 C   0  0  0  0  0  0  0  0  0  0  0  0
   17.2640   -7.9922   -5.1286 C   0  0  0  0  0  0  0  0  0  0  0  0
   15.9705   -8.7023   -5.1998 C   0  0  0  0  0  0  0  0  0  0  0  0
   17.2788   -6.5463   -4.9930 C   0  0  2  0  0  0  0  0  0  0  0  0
   17.6622   -5.7730   -6.2041 C   0  0  0  0  0  0  0  0  0  0  0  0
   16.4799   -4.9324   -6.6379 C   0  0  0  0  0  0  0  0  0  0  0  0
   15.6326   -4.6823   -5.4111 C   0  0  0  0  0  3  0  0  0  0  0  0
  1  2  1  0
  2  3  2  0
  2  4  1  0
  4  5  1  0
  5  6  1  0
  6  7  1  0
  6  8  2  0
  5  9  1  0
 10  9  1  1
 10 11  1  0
 12 11  1  6
 12 13  1  0
 13 14  1  0
 14 15  1  1
 14 16  1  0
 16 17  1  0
 17 18  1  0
 18 19  2  0
 18 20  1  0
 20 21  1  0
 21 22  2  3
 22 23  1  0
 22 24  1  0
 24 25  1  6
 25 26  1  0
 26 27  1  0
 27 10  1  0
 24 12  1  0
M  RAD  3   5   2  11   2  27   2
M  END
>  <docking_score>  (3) 
-5.0220000000000002

$$$$
