
     RDKit          3D

 14 13  0  0  0  0  0  0  0  0999 V2000
   19.9356   -3.2729   -1.0668 O   0  0  0  0  0  0  0  0  0  0  0  0
   19.6513   -2.0934   -1.7258 C   0  0  0  0  0  0  0  0  0  0  0  0
   18.6030   -2.3574   -2.7640 C   0  0  0  0  0  3  0  0  0  0  0  0
   17.2926   -1.8862   -2.3774 N   0  0  0  0  0  0  0  0  0  0  0  0
   16.2520   -2.8193   -2.7777 C   0  0  2  0  0  0  0  0  0  0  0  0
   16.6724   -4.1891   -2.2313 C   0  0  0  0  0  0  0  0  0  0  0  0
   16.2384   -4.3571   -0.9144 O   0  0  0  0  0  0  0  0  0  0  0  0
   16.1542   -2.9580   -4.2683 C   0  0  1  0  0  0  0  0  0  0  0  0
   16.3906   -4.2232   -4.7375 O   0  0  0  0  0  0  0  0  0  0  0  0
   14.9142   -2.3286   -4.8159 C   0  0  2  0  0  0  0  0  0  0  0  0
   14.0630   -3.2587   -5.3728 O   0  0  0  0  0  0  0  0  0  0  0  0
   15.1761   -1.2313   -5.7960 C   0  0  1  0  0  0  0  0  0  0  0  0
   14.2440   -0.0484   -5.5686 C   0  0  0  0  0  0  0  0  0  0  0  0
   16.4860   -0.7595   -5.7582 O   0  0  0  0  0  1  0  0  0  0  0  0
  1  2  1  0
  2  3  1  0
  3  4  1  0
  4  5  1  0
  5  6  1  1
  6  7  1  0
  5  8  1  0
  8  9  1  1
  8 10  1  0
 10 11  1  6
 10 12  1  0
 12 13  1  1
 12 14  1  0
M  CHG  1  14  -1
M  RAD  1   3   2
M  END
>  <docking_score>  (1) 
-3.3260000000000001

$$$$

     RDKit          3D

 14 13  0  0  0  0  0  0  0  0999 V2000
   17.6515   -5.7267   -3.0374 O   0  0  0  0  0  0  0  0  0  0  0  0
   17.2215   -4.6515   -2.2854 C   0  0  0  0  0  0  0  0  0  0  0  0
   16.4512   -3.7176   -3.1692 C   0  0  0  0  0  3  0  0  0  0  0  0
   16.8239   -3.8200   -4.5618 N   0  0  0  0  0  0  0  0  0  0  0  0
   15.9899   -2.9737   -5.3995 C   0  0  2  0  0  0  0  0  0  0  0  0
   14.9323   -2.3629   -4.4722 C   0  0  0  0  0  0  0  0  0  0  0  0
   14.0596   -1.5370   -5.1843 O   0  0  0  0  0  0  0  0  0  0  0  0
   15.2510   -3.7575   -6.4438 C   0  0  1  0  0  0  0  0  0  0  0  0
   15.3570   -3.2529   -7.7131 O   0  0  0  0  0  0  0  0  0  0  0  0
   15.5214   -5.2242   -6.3485 C   0  0  2  0  0  0  0  0  0  0  0  0
   16.0270   -5.7359   -7.5242 O   0  0  0  0  0  0  0  0  0  0  0  0
   14.3398   -6.0290   -5.9130 C   0  0  1  0  0  0  0  0  0  0  0  0
   14.6475   -6.8334   -4.6568 C   0  0  0  0  0  0  0  0  0  0  0  0
   13.2087   -5.2560   -5.6617 O   0  0  0  0  0  1  0  0  0  0  0  0
  1  2  1  0
  2  3  1  0
  3  4  1  0
  4  5  1  0
  5  6  1  1
  6  7  1  0
  5  8  1  0
  8  9  1  6
  8 10  1  0
 10 11  1  6
 10 12  1  0
 12 13  1  1
 12 14  1  0
M  CHG  1  14  -1
M  RAD  1   3   2
M  END
>  <docking_score>  (2) 
-3.2410000000000001

$$$$

     RDKit          3D

 14 13  0  0  0  0  0  0  0  0999 V2000
   14.2532   -6.4279   -4.9862 O   0  0  0  0  0  0  0  0  0  0  0  0
   14.5748   -5.5777   -6.0254 C   0  0  0  0  0  0  0  0  0  0  0  0
   14.0412   -4.2112   -5.7181 C   0  0  0  0  0  3  0  0  0  0  0  0
   15.0808   -3.2184   -5.5687 N   0  0  0  0  0  0  0  0  0  0  0  0
   14.9924   -2.5446   -4.2834 C   0  0  2  0  0  0  0  0  0  0  0  0
   14.7380   -1.0643   -4.5929 C   0  0  0  0  0  0  0  0  0  0  0  0
   13.3888   -0.8365   -4.8729 O   0  0  0  0  0  0  0  0  0  0  0  0
   16.2793   -2.6125   -3.5152 C   0  0  1  0  0  0  0  0  0  0  0  0
   16.2612   -1.9480   -2.3174 O   0  0  0  0  0  0  0  0  0  0  0  0
   16.8154   -4.0049   -3.4296 C   0  0  2  0  0  0  0  0  0  0  0  0
   16.1263   -4.7705   -2.5137 O   0  0  0  0  0  0  0  0  0  0  0  0
   18.2808   -4.0713   -3.1444 C   0  0  1  0  0  0  0  0  0  0  0  0
   18.7087   -5.4810   -2.7575 C   0  0  0  0  0  0  0  0  0  0  0  0
   19.0702   -3.6619   -4.2163 O   0  0  0  0  0  1  0  0  0  0  0  0
  1  2  1  0
  2  3  1  0
  3  4  1  0
  4  5  1  0
  5  6  1  6
  6  7  1  0
  5  8  1  0
  8  9  1  1
  8 10  1  0
 10 11  1  1
 10 12  1  0
 12 13  1  6
 12 14  1  0
M  CHG  1  14  -1
M  RAD  1   3   2
M  END
>  <docking_score>  (3) 
-3.2149999999999999

$$$$
