
     RDKit          3D

 81 82  0  0  0  0  0  0  0  0999 V2000
   20.4008    1.3000   -3.1178 C   0  0  0  0  0  0  0  0  0  0  0  0
   20.2942    2.7767   -3.3588 C   0  0  0  0  0  0  0  0  0  0  0  0
   21.2784    3.7133   -2.7232 C   0  0  0  0  0  0  0  0  0  0  0  0
   19.2032    3.3167   -4.2353 C   0  0  0  0  0  0  0  0  0  0  0  0
   18.8916    4.7839   -4.2269 C   0  0  0  0  0  0  0  0  0  0  0  0
   17.4653    5.2475   -4.1941 C   0  0  0  0  0  0  0  0  0  0  0  0
   16.8167    5.7669   -5.4429 C   0  0  0  0  0  0  0  0  0  0  0  0
   16.1001    7.0845   -5.4237 C   0  0  0  0  0  0  0  0  0  0  0  0
   16.8847    4.9686   -6.7111 C   0  0  0  0  0  3  0  0  0  0  0  0
   16.0183    3.7560   -6.8813 C   0  0  0  0  0  0  0  0  0  0  0  0
   15.5699    2.9798   -5.6787 C   0  0  0  0  0  0  0  0  0  0  0  0
   16.2320    1.6781   -5.3365 C   0  0  0  0  0  0  0  0  0  0  0  0
   15.2827    1.0708   -4.3465 C   0  0  0  0  0  0  0  0  0  0  0  0
   17.4760    1.7059   -6.1742 C   0  0  0  0  0  3  0  0  0  0  0  0
   18.7683    1.1490   -6.6937 C   0  0  0  0  0  0  0  0  0  0  0  0
   19.8528    0.1176   -6.7920 C   0  0  0  0  0  0  0  0  0  0  0  0
   20.8022    0.7248   -7.7821 N   0  0  0  0  0  1  0  0  0  0  0  0
   20.5150   -1.1842   -6.4498 C   0  0  0  0  0  0  0  0  0  0  0  0
   20.6235   -2.4982   -5.7348 C   0  0  0  0  0  0  0  0  0  0  0  0
   20.1569   -3.5645   -4.7885 C   0  0  0  0  0  0  0  0  0  0  0  0
   21.2416   -4.5960   -4.8869 C   0  0  0  0  0  0  0  0  0  0  0  0
   19.2077   -4.1717   -3.7985 O   0  0  0  0  0  0  0  0  0  0  0  0
   17.9637   -4.1996   -2.9608 C   0  0  0  0  0  0  0  0  0  0  0  0
   16.6714   -3.6428   -2.4413 C   0  0  0  0  0  0  0  0  0  0  0  0
   16.2049   -4.7090   -1.4951 O   0  0  0  0  0  0  0  0  0  0  0  0
   15.5868   -2.6113   -2.3430 C   0  0  0  0  0  0  0  0  0  0  0  0
   14.9247   -1.3096   -2.6852 S   0  0  1  0  0  0  0  0  0  0  0  0
   14.8162    0.0046   -3.4003 C   0  0  0  0  0  0  0  0  0  0  0  0
   13.5154    0.2759   -2.7042 C   0  0  0  0  0  0  0  0  0  0  0  0
   12.5189    1.3970   -2.7176 C   0  0  0  0  0  2  0  0  0  0  0  0
   13.6239   -1.0383   -1.9891 C   0  0  0  0  0  0  0  0  0  0  0  0
   12.7809   -1.7756   -0.9913 S   0  0  0  0  0  0  0  0  0  0  0  0
   13.4081   -2.3407    0.2485 C   0  0  0  0  0  0  0  0  0  0  0  0
   12.6533   -2.3256    1.5447 C   0  0  0  0  0  0  0  0  0  0  0  0
   13.3690   -2.0148    2.8258 C   0  0  0  0  0  0  0  0  0  0  0  0
   13.6438   -3.1079    3.8156 C   0  0  0  0  0  2  0  0  0  0  0  0
   13.8098   -0.6110    3.1171 C   0  0  0  0  0  0  0  0  0  0  0  0
   14.5490    0.1746    2.0748 C   0  0  0  0  0  0  0  0  0  0  0  0
   14.2634    1.6360    1.8943 C   0  0  0  0  0  0  0  0  0  0  0  0
   14.4363    2.5817    3.0457 C   0  0  0  0  0  0  0  0  0  0  0  0
   13.8049    2.1518    0.5625 C   0  0  0  0  0  0  0  0  0  0  0  0
   12.4219    2.7123    0.4110 C   0  0  0  0  0  0  0  0  0  0  0  0
   12.1412    4.1327    0.8029 C   0  0  0  0  0  0  0  0  0  0  0  0
   13.2566    5.0121    1.2850 O   0  0  0  0  0  0  0  0  0  0  0  0
   10.7450    4.6737    0.7128 C   0  0  0  0  0  0  0  0  0  0  0  0
   10.2716    5.6963    1.7028 C   0  0  0  0  0  3  0  0  0  0  0  0
   11.2116    6.2198    2.7479 C   0  0  0  0  0  0  0  0  0  0  0  0
   11.1435    5.6914    4.1502 C   0  0  0  0  0  2  0  0  0  0  0  0
   12.2196    7.2716    2.3909 C   0  0  0  0  0  0  0  0  0  0  0  0
   12.3662    8.4924    3.2501 C   0  0  0  0  0  3  0  0  0  0  0  0
   11.2136    8.9637    4.0864 C   0  0  0  0  0  0  0  0  0  0  0  0
   11.1672   10.3839    4.5673 C   0  0  0  0  0  0  0  0  0  0  0  0
   10.1550   10.7949    5.5951 C   0  0  0  0  0  0  0  0  0  0  0  0
    8.8332   10.0898    5.6699 C   0  0  0  0  0  0  0  0  0  0  0  0
    7.5723   10.8203    5.3141 C   0  0  0  0  0  2  0  0  0  0  0  0
    8.7722    8.6542    6.1004 C   0  0  0  0  0  0  0  0  0  0  0  0
    8.0930    7.6385    5.2303 C   0  0  0  0  0  3  0  0  0  0  0  0
    8.0451    6.2003    5.6537 C   0  0  0  0  0  3  0  0  0  0  0  0
    9.1353    5.6354    6.5153 C   0  0  0  0  0  0  0  0  0  0  0  0
    6.9069    5.3270    5.2155 C   0  0  0  0  0  0  0  0  0  0  0  0
    6.4033    5.4032    3.8046 C   0  0  0  0  0  0  0  0  0  0  0  0
    4.9352    5.2763    3.5245 C   0  0  0  0  0  0  0  0  0  0  0  0
    4.1704    4.0977    4.0497 C   0  0  0  0  0  0  0  0  0  0  0  0
    3.4963    3.1558    3.0966 C   0  0  0  0  0  0  0  0  0  0  0  0
    3.1536    3.6109    1.7090 C   0  0  0  0  0  0  0  0  0  0  0  0
    2.4231    4.9048    1.5030 C   0  0  0  0  0  0  0  0  0  0  0  0
    2.7878    6.1100    2.3181 C   0  0  0  0  0  0  0  0  0  0  0  0
    2.8129    6.0232    3.8153 C   0  0  0  0  0  2  0  0  0  0  0  0
    3.1276    7.4020    1.6359 C   0  0  0  0  0  0  0  0  0  0  0  0
    4.0554    8.3778    2.2969 C   0  0  0  0  0  0  0  0  0  0  0  0
    3.5524    9.2624    3.3989 C   0  0  0  0  0  0  0  0  0  0  0  0
    2.3738   10.1594    3.1617 C   0  0  0  0  0  0  0  0  0  0  0  0
    4.2279    9.2500    4.7381 C   0  0  0  0  0  3  0  0  0  0  0  0
    5.0272   10.4377    5.1860 C   0  0  0  0  0  0  0  0  0  0  0  0
    4.5637   11.8239    4.8490 C   0  0  0  0  0  0  0  0  0  0  0  0
    4.2651   12.1894    3.4253 C   0  0  0  0  0  0  0  0  0  0  0  0
    2.8545   12.1379    2.9178 C   0  0  0  0  0  0  0  0  0  0  0  0
    5.3771   12.6065    2.5090 C   0  0  0  0  0  3  0  0  0  0  0  0
    6.0219   11.5982    1.6047 C   0  0  0  0  0  0  0  0  0  0  0  0
    6.7215   10.4066    2.1883 C   0  0  0  0  0  0  0  0  0  0  0  0
    5.9670   11.7816    0.1170 C   0  0  0  0  0  0  0  0  0  0  0  0
  1  2  1  0
  2  3  1  0
  2  4  1  0
  4  5  1  0
  5  6  1  0
  6  7  1  0
  7  8  1  0
  7  9  1  0
  9 10  1  0
 10 11  1  0
 12 11  1  0
 12 13  1  0
 12 14  1  0
 14 15  1  0
 15 16  1  0
 16 17  1  0
 16 18  1  0
 18 19  1  0
 19 20  1  0
 20 21  1  0
 20 22  1  0
 22 23  1  0
 23 24  1  0
 24 25  1  0
 24 26  1  0
 26 27  1  0
 27 28  1  0
 28 29  1  0
 29 30  1  0
 29 31  1  0
 31 32  1  0
 32 33  1  0
 33 34  1  0
 34 35  1  0
 35 36  1  0
 35 37  1  0
 37 38  1  0
 38 39  1  0
 39 40  1  0
 39 41  1  0
 41 42  1  0
 42 43  1  0
 43 44  1  0
 43 45  1  0
 45 46  1  0
 46 47  1  0
 47 48  1  0
 47 49  1  0
 49 50  1  0
 50 51  1  0
 51 52  1  0
 52 53  1  0
 53 54  1  0
 54 55  1  0
 54 56  1  0
 56 57  1  0
 57 58  1  0
 58 59  1  0
 58 60  1  0
 60 61  1  0
 61 62  1  0
 62 63  1  0
 63 64  1  0
 64 65  1  0
 65 66  1  0
 66 67  1  0
 67 68  1  0
 67 69  1  0
 69 70  1  0
 70 71  1  0
 71 72  1  0
 71 73  1  0
 73 74  1  0
 74 75  1  0
 75 76  1  0
 76 77  1  0
 76 78  1  0
 78 79  1  0
 79 80  1  0
 79 81  1  0
 28 13  1  0
 31 27  1  0
M  RAD  8   9   2  14   2  17   2  30   3  36   3  46   2  48   3  50   2
M  CHG  1  17   1
M  RAD  6  55   3  57   2  58   2  68   3  73   2  78   2
M  END
>  <docking_score>  (1) 
92.441999999999993

$$$$
