
     RDKit          3D

 33 33  0  0  0  0  0  0  0  0999 V2000
    8.3781   14.3890   12.2200 C   0  0  0  0  0  0  0  0  0  0  0  0
    6.9491   13.8557   12.0768 C   0  0  0  0  0  0  0  0  0  0  0  0
    6.2216   14.1741   13.3331 C   0  0  0  0  0  0  0  0  0  0  0  0
    7.0710   12.3963   11.7832 C   0  0  0  0  0  0  0  0  0  0  0  0
    5.7434   11.7746   11.4615 C   0  0  0  0  0  0  0  0  0  0  0  0
    5.5095   10.4390   12.0696 C   0  0  0  0  0  0  0  0  0  0  0  0
    5.2096    9.3778   11.0686 C   0  0  1  0  0  0  0  0  0  0  0  0
    4.3796    8.2331   11.5253 C   0  0  0  0  0  0  0  0  0  0  0  0
    4.5461   10.0490    9.8585 C   0  0  0  0  0  3  0  0  0  0  0  0
    3.9625    9.0073    8.9234 C   0  0  0  0  0  0  0  0  0  0  0  0
    4.8670    8.9332    7.7108 C   0  0  0  0  0  0  0  0  0  0  0  0
    4.0662    8.8130    6.4468 C   0  0  2  0  0  0  0  0  0  0  0  0
    2.9226    7.8589    6.5558 C   0  0  0  0  0  0  0  0  0  0  0  0
    5.0084    8.4620    5.3088 C   0  0  0  0  0  0  0  0  0  0  0  0
    5.3551    9.7764    4.6223 C   0  0  1  0  0  0  0  0  0  0  0  0
    6.6890   10.1096    5.0161 N   0  0  0  0  0  0  0  0  0  0  0  0
    6.9179   11.2805    5.4457 C   0  0  0  0  0  0  0  0  0  0  0  0
    5.8183   12.2563    5.5274 C   0  0  1  0  0  0  0  0  0  0  0  0
    4.7850   11.9028    6.5600 C   0  0  0  0  0  0  0  0  0  0  0  0
    4.3350   13.1634    7.2434 C   0  0  0  0  0  0  0  0  0  0  0  0
    2.8630   13.1542    7.5550 C   0  0  0  0  0  0  0  0  0  0  0  0
    2.2606   11.9345    7.2543 O   0  0  0  0  0  0  0  0  0  0  0  0
    5.2726    9.6194    3.1179 C   0  0  0  0  0  0  0  0  0  0  0  0
    4.0281   10.2912    2.5845 C   0  0  0  0  0  0  0  0  0  0  0  0
    3.1634   10.7679    3.7306 C   0  0  2  0  0  0  0  0  0  0  0  0
    2.2584    9.6667    4.2410 C   0  0  0  0  0  0  0  0  0  0  0  0
    2.3167   11.9596    3.3205 C   0  0  0  0  0  3  0  0  0  0  0  0
    2.7609   12.4538    1.9446 C   0  0  0  0  0  0  0  0  0  0  0  0
    4.1875   12.8570    2.0635 C   0  0  0  0  0  0  0  0  0  0  0  0
    4.7220   13.2395    3.2226 C   0  0  0  0  0  0  0  0  0  0  0  0
    6.1322   13.6334    3.3171 C   0  0  0  0  0  0  0  0  0  0  0  0
    6.4458   14.4407    4.5347 C   0  0  0  0  0  0  0  0  0  0  0  0
    6.3691   13.6343    5.8102 C   0  0  0  0  0  2  0  0  0  0  0  0
  1  2  1  0
  2  3  1  0
  2  4  1  0
  4  5  1  0
  5  6  1  0
  6  7  1  0
  7  8  1  1
  7  9  1  0
  9 10  1  0
 10 11  1  0
 11 12  1  0
 12 13  1  1
 12 14  1  0
 15 14  1  1
 15 16  1  0
 16 17  2  3
 17 18  1  0
 18 19  1  1
 19 20  1  0
 20 21  1  0
 21 22  1  0
 15 23  1  0
 23 24  1  0
 24 25  1  0
 25 26  1  6
 25 27  1  0
 27 28  1  0
 28 29  1  0
 29 30  2  3
 30 31  1  0
 31 32  1  0
 32 33  1  0
 33 18  1  0
M  RAD  3   9   2  27   2  33   3
M  END
>  <docking_score>  (1) 
-3.677

$$$$

     RDKit          3D

 33 33  0  0  0  0  0  0  0  0999 V2000
   14.8289   -1.0514   -3.9712 C   0  0  0  0  0  0  0  0  0  0  0  0
   15.2617   -0.2834   -5.2241 C   0  0  0  0  0  0  0  0  0  0  0  0
   14.0448   -0.0270   -6.0380 C   0  0  0  0  0  0  0  0  0  0  0  0
   16.2939   -1.1256   -5.8995 C   0  0  0  0  0  0  0  0  0  0  0  0
   17.6337   -1.0160   -5.2322 C   0  0  0  0  0  0  0  0  0  0  0  0
   18.4704    0.1263   -5.6830 C   0  0  0  0  0  0  0  0  0  0  0  0
   19.8543    0.0989   -5.1332 C   0  0  1  0  0  0  0  0  0  0  0  0
   20.4253    1.3920   -4.6754 C   0  0  0  0  0  0  0  0  0  0  0  0
   19.8813   -0.9159   -3.9823 C   0  0  0  0  0  3  0  0  0  0  0  0
   21.3080   -1.3082   -3.6494 C   0  0  0  0  0  0  0  0  0  0  0  0
   21.2717   -2.7223   -3.1081 C   0  0  0  0  0  0  0  0  0  0  0  0
   19.8693   -3.1321   -2.7630 C   0  0  2  0  0  0  0  0  0  0  0  0
   19.2129   -2.2291   -1.7712 C   0  0  0  0  0  0  0  0  0  0  0  0
   19.8871   -4.5803   -2.3065 C   0  0  0  0  0  0  0  0  0  0  0  0
   19.4235   -5.4080   -3.4978 C   0  0  1  0  0  0  0  0  0  0  0  0
   20.5810   -6.0664   -4.0196 N   0  0  0  0  0  0  0  0  0  0  0  0
   20.8053   -5.9975   -5.2657 C   0  0  0  0  0  0  0  0  0  0  0  0
   19.8802   -5.2507   -6.1341 C   0  0  1  0  0  0  0  0  0  0  0  0
   19.8949   -3.7687   -5.8836 C   0  0  0  0  0  0  0  0  0  0  0  0
   19.8227   -3.0555   -7.2044 C   0  0  0  0  0  0  0  0  0  0  0  0
   21.0137   -2.1679   -7.4442 C   0  0  0  0  0  0  0  0  0  0  0  0
   20.7785   -1.2124   -8.4305 O   0  0  0  0  0  0  0  0  0  0  0  0
   18.3906   -6.4253   -3.0588 C   0  0  0  0  0  0  0  0  0  0  0  0
   17.0096   -6.0007   -3.5028 C   0  0  0  0  0  0  0  0  0  0  0  0
   17.0604   -4.6121   -4.1010 C   0  0  2  0  0  0  0  0  0  0  0  0
   16.9637   -3.5421   -3.0344 C   0  0  0  0  0  0  0  0  0  0  0  0
   15.9470   -4.4096   -5.1133 C   0  0  0  0  0  3  0  0  0  0  0  0
   15.2523   -5.7434   -5.3837 C   0  0  0  0  0  0  0  0  0  0  0  0
   16.2794   -6.6690   -5.9318 C   0  0  0  0  0  0  0  0  0  0  0  0
   17.3632   -6.2282   -6.5695 C   0  0  0  0  0  0  0  0  0  0  0  0
   18.3639   -7.1595   -7.1024 C   0  0  0  0  0  0  0  0  0  0  0  0
   19.2457   -6.5545   -8.1461 C   0  0  0  0  0  0  0  0  0  0  0  0
   20.1981   -5.5241   -7.5855 C   0  0  0  0  0  2  0  0  0  0  0  0
  1  2  1  0
  2  3  1  0
  2  4  1  0
  4  5  1  0
  5  6  1  0
  6  7  1  0
  7  8  1  1
  7  9  1  0
  9 10  1  0
 10 11  1  0
 11 12  1  0
 12 13  1  1
 12 14  1  0
 15 14  1  1
 15 16  1  0
 16 17  2  3
 17 18  1  0
 18 19  1  6
 19 20  1  0
 20 21  1  0
 21 22  1  0
 15 23  1  0
 23 24  1  0
 24 25  1  0
 25 26  1  1
 25 27  1  0
 27 28  1  0
 28 29  1  0
 29 30  2  3
 30 31  1  0
 31 32  1  0
 32 33  1  0
 33 18  1  0
M  RAD  3   9   2  27   2  33   3
M  END
>  <docking_score>  (2) 
-3.5950000000000002

$$$$

     RDKit          3D

 33 33  0  0  0  0  0  0  0  0999 V2000
    9.7429   14.8526   12.2120 C   0  0  0  0  0  0  0  0  0  0  0  0
    8.3397   14.8146   12.8255 C   0  0  0  0  0  0  0  0  0  0  0  0
    8.1898   13.5128   13.5269 C   0  0  0  0  0  0  0  0  0  0  0  0
    7.3813   15.0268   11.6997 C   0  0  0  0  0  0  0  0  0  0  0  0
    6.9315   13.7303   11.0921 C   0  0  0  0  0  0  0  0  0  0  0  0
    6.0464   13.8641    9.9059 C   0  0  0  0  0  0  0  0  0  0  0  0
    5.4120   15.2065    9.7900 C   0  0  1  0  0  0  0  0  0  0  0  0
    5.8524   16.0669    8.6615 C   0  0  0  0  0  0  0  0  0  0  0  0
    3.8924   15.0025    9.7237 C   0  0  0  0  0  3  0  0  0  0  0  0
    3.3258   15.6157    8.4576 C   0  0  0  0  0  0  0  0  0  0  0  0
    2.6931   14.4953    7.6586 C   0  0  0  0  0  0  0  0  0  0  0  0
    3.2855   14.4136    6.2815 C   0  0  2  0  0  0  0  0  0  0  0  0
    2.2614   14.3585    5.1961 C   0  0  0  0  0  0  0  0  0  0  0  0
    4.2433   13.2360    6.2362 C   0  0  0  0  0  0  0  0  0  0  0  0
    4.8052   13.1985    4.8213 C   0  0  1  0  0  0  0  0  0  0  0  0
    3.9091   12.4022    4.0413 N   0  0  0  0  0  0  0  0  0  0  0  0
    4.3928   11.4763    3.3226 C   0  0  0  0  0  0  0  0  0  0  0  0
    5.8471   11.2464    3.3088 C   0  0  1  0  0  0  0  0  0  0  0  0
    6.3804   10.7330    4.6169 C   0  0  0  0  0  0  0  0  0  0  0  0
    5.3462    9.8398    5.2422 C   0  0  0  0  0  0  0  0  0  0  0  0
    5.7602    8.3933    5.2419 C   0  0  0  0  0  0  0  0  0  0  0  0
    5.0938    7.6466    4.2727 O   0  0  0  0  0  0  0  0  0  0  0  0
    4.8940   14.6008    4.2554 C   0  0  0  0  0  0  0  0  0  0  0  0
    6.3300   15.0720    4.2354 C   0  0  0  0  0  0  0  0  0  0  0  0
    7.2160   14.0679    4.9391 C   0  0  2  0  0  0  0  0  0  0  0  0
    7.2407   14.2989    6.4351 C   0  0  0  0  0  0  0  0  0  0  0  0
    8.6357   14.1180    4.4030 C   0  0  0  0  0  3  0  0  0  0  0  0
    8.6832   15.0092    3.1627 C   0  0  0  0  0  0  0  0  0  0  0  0
    7.7763   14.4022    2.1522 C   0  0  0  0  0  0  0  0  0  0  0  0
    7.4884   13.1011    2.1484 C   0  0  0  0  0  0  0  0  0  0  0  0
    6.5909   12.5234    1.1418 C   0  0  0  0  0  0  0  0  0  0  0  0
    6.7285   11.0423    0.9997 C   0  0  0  0  0  0  0  0  0  0  0  0
    6.2088   10.2861    2.2002 C   0  0  0  0  0  2  0  0  0  0  0  0
  1  2  1  0
  2  3  1  0
  2  4  1  0
  4  5  1  0
  5  6  1  0
  6  7  1  0
  7  8  1  6
  7  9  1  0
  9 10  1  0
 10 11  1  0
 11 12  1  0
 12 13  1  6
 12 14  1  0
 15 14  1  1
 15 16  1  0
 16 17  2  3
 17 18  1  0
 18 19  1  1
 19 20  1  0
 20 21  1  0
 21 22  1  0
 15 23  1  0
 23 24  1  0
 24 25  1  0
 25 26  1  1
 25 27  1  0
 27 28  1  0
 28 29  1  0
 29 30  2  3
 30 31  1  0
 31 32  1  0
 32 33  1  0
 33 18  1  0
M  RAD  3   9   2  27   2  33   3
M  END
>  <docking_score>  (3) 
-3.1960000000000002

$$$$
