
     RDKit          3D

 12 11  0  0  0  0  0  0  0  0999 V2000
   20.3739    9.5223    0.5716 O   0  0  0  0  0  0  0  0  0  0  0  0
   20.1340   10.1241   -0.6777 C   0  0  0  0  0  0  0  0  0  0  0  0
   19.4641    9.1105   -1.6133 C   0  0  0  0  0  3  0  0  0  0  0  0
   20.5230    8.2410   -2.0797 N   0  0  0  0  0  0  0  0  0  0  0  0
   19.9581    6.9628   -2.4986 C   0  0  2  0  0  0  0  0  0  0  0  0
   21.0757    5.9399   -2.4339 C   0  0  0  0  0  0  0  0  0  0  0  0
   19.5213    7.1595   -3.8111 O   0  0  0  0  0  0  0  0  0  0  0  0
   18.4315    6.3818   -4.1056 C   0  0  1  0  0  0  0  0  0  0  0  0
   17.2572    6.7965   -3.5265 O   0  0  0  0  0  0  0  0  0  0  0  0
   18.2470    6.1453   -5.5682 C   0  0  0  0  0  0  0  0  0  0  0  0
   19.3821    5.7059   -6.2228 O   0  0  0  0  0  0  0  0  0  0  0  0
   17.2396    5.2099   -5.7629 O   0  0  0  0  0  0  0  0  0  0  0  0
  1  2  1  0
  2  3  1  0
  3  4  1  0
  4  5  1  0
  5  6  1  6
  5  7  1  0
  7  8  1  0
  8  9  1  6
  8 10  1  0
 10 11  1  0
 10 12  1  0
M  RAD  1   3   2
M  END
>  <docking_score>  (1) 
-3.1160000000000001

$$$$

     RDKit          3D

 12 11  0  0  0  0  0  0  0  0999 V2000
   15.9438   -5.7223   -6.0073 O   0  0  0  0  0  0  0  0  0  0  0  0
   15.5175   -5.9621   -4.6878 C   0  0  0  0  0  0  0  0  0  0  0  0
   16.7062   -5.8109   -3.7309 C   0  0  0  0  0  3  0  0  0  0  0  0
   16.3143   -4.8046   -2.7674 N   0  0  0  0  0  0  0  0  0  0  0  0
   17.1177   -3.6022   -2.9610 C   0  0  2  0  0  0  0  0  0  0  0  0
   18.1191   -3.5483   -1.8233 C   0  0  0  0  0  0  0  0  0  0  0  0
   16.2164   -2.5365   -2.8987 O   0  0  0  0  0  0  0  0  0  0  0  0
   16.0184   -1.9663   -4.1295 C   0  0  1  0  0  0  0  0  0  0  0  0
   16.9125   -2.3599   -5.0948 O   0  0  0  0  0  0  0  0  0  0  0  0
   14.6152   -2.0902   -4.6240 C   0  0  0  0  0  0  0  0  0  0  0  0
   13.9407   -0.8890   -4.7339 O   0  0  0  0  0  0  0  0  0  0  0  0
   14.6150   -2.7077   -5.8676 O   0  0  0  0  0  0  0  0  0  0  0  0
  1  2  1  0
  2  3  1  0
  3  4  1  0
  4  5  1  0
  5  6  1  1
  5  7  1  0
  7  8  1  0
  8  9  1  6
  8 10  1  0
 10 11  1  0
 10 12  1  0
M  RAD  1   3   2
M  END
>  <docking_score>  (2) 
-3.0720000000000001

$$$$

     RDKit          3D

 12 11  0  0  0  0  0  0  0  0999 V2000
   13.6519    0.1073   -5.3379 O   0  0  0  0  0  0  0  0  0  0  0  0
   14.9683   -0.3149   -5.6016 C   0  0  0  0  0  0  0  0  0  0  0  0
   14.9448   -1.7415   -6.1635 C   0  0  0  0  0  3  0  0  0  0  0  0
   14.5686   -2.5970   -5.0584 N   0  0  0  0  0  0  0  0  0  0  0  0
   15.6446   -3.5429   -4.7832 C   0  0  2  0  0  0  0  0  0  0  0  0
   15.1853   -4.8979   -5.2861 C   0  0  0  0  0  0  0  0  0  0  0  0
   15.7993   -3.5393   -3.3946 O   0  0  0  0  0  0  0  0  0  0  0  0
   16.6915   -2.5824   -2.9854 C   0  0  1  0  0  0  0  0  0  0  0  0
   16.1601   -1.6135   -2.1699 O   0  0  0  0  0  0  0  0  0  0  0  0
   17.9403   -3.1475   -2.3936 C   0  0  0  0  0  0  0  0  0  0  0  0
   18.6768   -3.9339   -3.2591 O   0  0  0  0  0  0  0  0  0  0  0  0
   18.7504   -2.1125   -1.9458 O   0  0  0  0  0  0  0  0  0  0  0  0
  1  2  1  0
  2  3  1  0
  3  4  1  0
  4  5  1  0
  5  6  1  1
  5  7  1  0
  7  8  1  0
  8  9  1  1
  8 10  1  0
 10 11  1  0
 10 12  1  0
M  RAD  1   3   2
M  END
>  <docking_score>  (3) 
-2.9769999999999999

$$$$
