
     RDKit          3D

 27 27  0  0  0  0  0  0  0  0999 V2000
   14.5913   -1.4701   -4.5504 C   0  0  0  0  0  0  0  0  0  0  0  0
   14.7219   -2.3414   -5.7819 C   0  0  1  0  0  0  0  0  0  0  0  0
   14.9964   -1.5144   -7.0010 C   0  0  0  0  0  0  0  0  0  0  0  0
   15.6022   -2.3278   -8.1233 C   0  0  2  0  0  0  0  0  0  0  0  0
   14.6933   -3.2436   -8.5962 O   0  0  0  0  0  0  0  0  0  0  0  0
   16.9022   -2.9890   -7.7143 C   0  0  2  0  0  0  0  0  0  0  0  0
   16.8074   -4.3818   -7.8734 O   0  0  0  0  0  0  0  0  0  0  0  0
   17.1031   -2.7324   -6.2282 C   0  0  1  0  0  0  0  0  0  0  0  0
   17.0874   -1.3360   -6.0682 O   0  0  0  0  0  0  0  0  0  0  0  0
   15.8599   -3.3022   -5.5386 C   0  0  1  0  0  0  0  0  0  0  0  0
   16.1484   -3.3810   -4.0980 N   0  0  0  0  0  0  0  0  0  0  0  0
   17.4866   -3.8722   -3.9674 C   0  0  0  0  0  3  0  0  0  0  0  0
   17.9681   -3.8847   -2.5238 C   0  0  1  0  0  0  0  0  0  0  0  0
   18.5907   -2.5287   -2.2635 C   0  0  0  0  0  0  0  0  0  0  0  0
   19.5596   -2.1909   -3.1772 O   0  0  0  0  0  0  0  0  0  0  0  0
   19.5288   -0.8326   -3.4428 C   0  0  0  0  0  3  0  0  0  0  0  0
   20.3293   -0.1586   -2.4991 O   0  0  0  0  0  0  0  0  0  0  0  0
   16.7992   -4.0895   -1.5698 C   0  0  0  0  0  2  0  0  0  0  0  0
   19.0095   -4.9520   -2.3085 C   0  0  0  0  0  0  0  0  0  0  0  0
   18.6005   -6.0983   -2.9604 O   0  0  0  0  0  0  0  0  0  0  0  0
   19.7179   -6.6467   -3.5873 C   0  0  2  0  0  0  0  0  0  0  0  0
   20.8001   -5.8122   -3.3978 O   0  0  0  0  0  0  0  0  0  0  0  0
   19.4201   -6.8812   -5.0329 C   0  0  0  0  0  3  0  0  0  0  0  0
   19.0199   -8.3288   -5.2808 C   0  0  0  0  0  0  0  0  0  0  0  0
   17.5046   -8.3790   -5.3642 C   0  0  0  0  0  3  0  0  0  0  0  0
   17.0252   -7.2121   -5.9507 O   0  0  0  0  0  0  0  0  0  0  0  0
   15.8976   -6.8781   -5.3700 O   0  0  0  0  0  0  0  0  0  0  0  0
  2  1  1  1
  2  3  1  0
  3  4  1  0
  4  5  1  1
  4  6  1  0
  6  7  1  1
  6  8  1  0
  8  9  1  6
  8 10  1  0
 10 11  1  1
 11 12  1  0
 12 13  1  0
 13 14  1  0
 14 15  1  0
 15 16  1  0
 16 17  1  0
 13 18  1  1
 13 19  1  0
 19 20  1  0
 20 21  1  0
 21 22  1  6
 21 23  1  0
 23 24  1  0
 24 25  1  0
 25 26  1  0
 26 27  1  0
 10  2  1  0
M  RAD  5  12   2  16   2  18   3  23   2  25   2
M  END
>  <docking_score>  (1) 
-3.742

$$$$

     RDKit          3D

 27 27  0  0  0  0  0  0  0  0999 V2000
   16.5749   -2.6323   -1.9985 C   0  0  0  0  0  0  0  0  0  0  0  0
   15.8466   -2.6106   -3.3258 C   0  0  1  0  0  0  0  0  0  0  0  0
   15.5774   -1.2052   -3.7704 C   0  0  0  0  0  0  0  0  0  0  0  0
   15.3086   -1.1134   -5.2561 C   0  0  2  0  0  0  0  0  0  0  0  0
   14.1289   -1.7448   -5.5696 O   0  0  0  0  0  0  0  0  0  0  0  0
   16.4634   -1.6430   -6.0809 C   0  0  2  0  0  0  0  0  0  0  0  0
   16.0257   -2.6892   -6.9103 O   0  0  0  0  0  0  0  0  0  0  0  0
   17.4794   -2.2434   -5.1207 C   0  0  1  0  0  0  0  0  0  0  0  0
   17.8278   -1.2147   -4.2284 O   0  0  0  0  0  0  0  0  0  0  0  0
   16.7205   -3.3162   -4.3338 C   0  0  1  0  0  0  0  0  0  0  0  0
   17.7176   -4.1447   -3.6379 N   0  0  0  0  0  0  0  0  0  0  0  0
   18.8207   -4.3105   -4.5351 C   0  0  0  0  0  3  0  0  0  0  0  0
   19.5744   -5.6121   -4.3031 C   0  0  1  0  0  0  0  0  0  0  0  0
   20.3526   -5.8935   -5.5716 C   0  0  0  0  0  0  0  0  0  0  0  0
   20.6327   -4.7626   -6.2999 O   0  0  0  0  0  0  0  0  0  0  0  0
   20.2262   -4.9146   -7.6145 C   0  0  0  0  0  3  0  0  0  0  0  0
   21.2707   -5.5014   -8.3565 O   0  0  0  0  0  0  0  0  0  0  0  0
   20.5476   -5.4690   -3.1409 C   0  0  0  0  0  2  0  0  0  0  0  0
   18.6227   -6.7520   -4.0484 C   0  0  0  0  0  0  0  0  0  0  0  0
   18.7712   -7.6787   -5.0610 O   0  0  0  0  0  0  0  0  0  0  0  0
   17.4964   -8.0176   -5.5109 C   0  0  2  0  0  0  0  0  0  0  0  0
   17.2830   -9.3640   -5.2987 O   0  0  0  0  0  0  0  0  0  0  0  0
   17.3504   -7.6327   -6.9475 C   0  0  0  0  0  3  0  0  0  0  0  0
   16.9531   -6.1695   -7.0839 C   0  0  0  0  0  0  0  0  0  0  0  0
   15.4362   -6.1026   -7.0780 C   0  0  0  0  0  3  0  0  0  0  0  0
   14.9908   -5.5937   -5.8623 O   0  0  0  0  0  0  0  0  0  0  0  0
   13.7000   -5.8041   -5.7620 O   0  0  0  0  0  0  0  0  0  0  0  0
  2  1  1  1
  2  3  1  0
  3  4  1  0
  4  5  1  1
  4  6  1  0
  6  7  1  6
  6  8  1  0
  8  9  1  1
  8 10  1  0
 10 11  1  1
 11 12  1  0
 12 13  1  0
 13 14  1  0
 14 15  1  0
 15 16  1  0
 16 17  1  0
 13 18  1  1
 13 19  1  0
 19 20  1  0
 20 21  1  0
 21 22  1  6
 21 23  1  0
 23 24  1  0
 24 25  1  0
 25 26  1  0
 26 27  1  0
 10  2  1  0
M  RAD  5  12   2  16   2  18   3  23   2  25   2
M  END
>  <docking_score>  (2) 
-2.9329999999999998

$$$$
