
     RDKit          3D

 38 38  0  0  0  0  0  0  0  0999 V2000
    3.7995    6.4635    3.8416 C   0  0  0  0  0  0  0  0  0  0  0  0
    4.4375    7.8214    3.9531 C   0  0  0  0  0  0  0  0  0  0  0  0
    5.3953    7.7878    5.1286 C   0  0  0  0  0  0  0  0  0  0  0  0
    3.3694    8.8820    4.1465 C   0  0  0  0  0  0  0  0  0  0  0  0
    3.8717   10.2125    3.6300 C   0  0  0  0  0  0  0  0  0  0  0  0
    3.9528   11.1702    4.8195 C   0  0  0  0  0  0  0  0  0  0  0  0
    5.3989   11.4439    5.1047 C   0  0  1  0  0  0  0  0  0  0  0  0
    5.8188   12.6780    4.3507 C   0  0  0  0  0  0  0  0  0  0  0  0
    5.5449   11.6717    6.6001 C   0  0  0  0  0  3  0  0  0  0  0  0
    4.4458   11.0255    7.3780 C   0  0  0  0  0  0  0  0  0  0  0  0
    3.7055   12.0872    8.1559 C   0  0  0  0  0  0  0  0  0  0  0  0
    3.5666   11.5876    9.5769 C   0  0  1  0  0  0  0  0  0  0  0  0
    2.2716   10.8243    9.7496 C   0  0  0  0  0  0  0  0  0  0  0  0
    4.7205   10.6873    9.9678 C   0  0  0  0  0  0  0  0  0  0  0  0
    5.4007   11.3238   11.1629 C   0  0  2  0  0  0  0  0  0  0  0  0
    6.1395   12.5472   10.7479 C   0  0  0  0  0  3  0  0  0  0  0  0
    6.2926   10.2663   11.7808 C   0  0  0  0  0  0  0  0  0  0  0  0
    5.4692    9.0121   11.9933 C   0  0  0  0  0  0  0  0  0  0  0  0
    4.0896    9.3979   12.4255 C   0  0  1  0  0  0  0  0  0  0  0  0
    3.0699    8.3109   12.2236 C   0  0  0  0  0  0  0  0  0  0  0  0
    4.0427    9.9927   13.8047 C   0  0  0  0  0  0  0  0  0  0  0  0
    3.0466   11.1276   13.7955 C   0  0  0  0  0  0  0  0  0  0  0  0
    3.0990   11.9079   15.0860 C   0  0  1  0  0  0  0  0  0  0  0  0
    4.4164   12.0653   15.5186 O   0  0  0  0  0  0  0  0  0  0  0  0
    2.4384   13.2444   14.8878 C   0  0  0  0  0  0  0  0  0  0  0  0
    2.3361   13.5036   13.5423 O   0  0  0  0  0  0  0  0  0  0  0  0
    3.5750   13.3923   12.8816 C   0  0  0  0  0  0  0  0  0  0  0  0
    3.6097   14.4618   11.8343 C   0  0  0  0  0  0  0  0  0  0  0  0
    4.9587   14.7027   11.2470 C   0  0  0  0  0  3  0  0  0  0  0  0
    4.9412   14.8782    9.7612 C   0  0  0  0  0  0  0  0  0  0  0  0
    6.0001   13.7167   11.6416 C   0  0  1  0  0  0  0  0  0  0  0  0
    6.1030   13.4479   13.0936 C   0  0  0  0  0  0  0  0  0  0  0  0
    7.1934   14.3200   13.6754 C   0  0  0  0  0  0  0  0  0  0  0  0
    8.1706   13.5170   14.5039 C   0  0  0  0  0  0  0  0  0  0  0  0
    9.4606   13.3944   13.7466 C   0  0  0  0  0  0  0  0  0  0  0  0
    9.5324   14.4946   12.7642 C   0  0  0  0  0  0  0  0  0  0  0  0
   10.1092   15.6326   13.0791 C   0  0  0  0  0  0  0  0  0  0  0  0
   10.6895   15.8107   14.4267 C   0  0  0  0  0  1  0  0  0  0  0  0
  1  2  1  0
  2  3  1  0
  2  4  1  0
  4  5  1  0
  5  6  1  0
  6  7  1  0
  7  8  1  6
  7  9  1  0
  9 10  1  0
 10 11  1  0
 11 12  1  0
 12 13  1  6
 12 14  1  0
 15 14  1  6
 15 16  1  0
 15 17  1  0
 17 18  1  0
 18 19  1  0
 19 20  1  1
 19 21  1  0
 21 22  1  0
 22 23  1  0
 23 24  1  6
 23 25  1  0
 25 26  1  0
 26 27  1  0
 27 28  1  0
 28 29  1  0
 29 30  1  0
 29 31  1  0
 31 32  1  1
 32 33  1  0
 33 34  1  0
 34 35  1  0
 35 36  1  0
 36 37  2  3
 37 38  1  0
 31 16  1  0
M  RAD  4   9   2  16   2  29   2  38   2
M  END
>  <docking_score>  (1) 
-3.0859999999999999

$$$$
