
     RDKit          3D

  9  8  0  0  0  0  0  0  0  0999 V2000
    5.9063   -2.0386   -5.1974 O   0  0  0  0  0  0  0  0  0  0  0  0
    5.6692   -2.4310   -6.3327 C   0  0  0  0  0  0  0  0  0  0  0  0
    4.7261   -3.9082   -6.6843 S   0  0  0  0  0  0  0  0  0  0  0  0
    4.4507   -3.9514   -8.4785 C   0  0  0  0  0  0  0  0  0  0  0  0
    3.0853   -4.6213   -8.7072 C   0  0  0  0  0  0  0  0  0  0  0  0
    6.2084   -1.6094   -7.4399 C   0  0  0  0  0  0  0  0  0  0  0  0
    5.6250   -0.2336   -7.5272 C   0  0  0  0  0  0  0  0  0  0  0  0
    6.5336    0.8416   -7.1344 C   0  0  0  0  0  0  0  0  0  0  0  0
    6.4894    1.5802   -6.0488 C   0  0  0  0  0  0  0  0  0  0  0  0
  1  2  2  0
  2  3  1  0
  3  4  1  0
  4  5  1  0
  2  6  1  0
  6  7  1  0
  7  8  1  0
  8  9  2  0
M  END
>  <docking_score>  (1) 
-3.681

$$$$

     RDKit          3D

  9  8  0  0  0  0  0  0  0  0999 V2000
    6.9013   -1.1271   -4.5839 O   0  0  0  0  0  0  0  0  0  0  0  0
    6.7298   -1.1000   -5.7960 C   0  0  0  0  0  0  0  0  0  0  0  0
    6.9181    0.3793   -6.7816 S   0  0  0  0  0  0  0  0  0  0  0  0
    5.8271    1.6412   -6.0645 C   0  0  0  0  0  0  0  0  0  0  0  0
    6.6291    2.3550   -4.9633 C   0  0  0  0  0  0  0  0  0  0  0  0
    6.3498   -2.3794   -6.4365 C   0  0  0  0  0  0  0  0  0  0  0  0
    4.8879   -2.6937   -6.3659 C   0  0  0  0  0  0  0  0  0  0  0  0
    4.5404   -4.0681   -6.7217 C   0  0  0  0  0  0  0  0  0  0  0  0
    3.3538   -4.5521   -7.0109 C   0  0  0  0  0  0  0  0  0  0  0  0
  1  2  2  0
  2  3  1  0
  3  4  1  0
  4  5  1  0
  2  6  1  0
  6  7  1  0
  7  8  1  0
  8  9  2  0
M  END
>  <docking_score>  (2) 
-3.6080000000000001

$$$$

     RDKit          3D

  9  8  0  0  0  0  0  0  0  0999 V2000
    5.6154   -1.4648   -8.0528 O   0  0  0  0  0  0  0  0  0  0  0  0
    5.6864   -2.0317   -6.9698 C   0  0  0  0  0  0  0  0  0  0  0  0
    4.9684   -3.6377   -6.6531 S   0  0  0  0  0  0  0  0  0  0  0  0
    4.9590   -4.5386   -8.2296 C   0  0  0  0  0  0  0  0  0  0  0  0
    5.7589   -5.8339   -8.0113 C   0  0  0  0  0  0  0  0  0  0  0  0
    6.4139   -1.3156   -5.8976 C   0  0  0  0  0  0  0  0  0  0  0  0
    7.0505   -0.0333   -6.3349 C   0  0  0  0  0  0  0  0  0  0  0  0
    6.6613    1.1395   -5.5545 C   0  0  0  0  0  0  0  0  0  0  0  0
    6.1336    2.2610   -5.9904 C   0  0  0  0  0  0  0  0  0  0  0  0
  1  2  2  0
  2  3  1  0
  3  4  1  0
  4  5  1  0
  2  6  1  0
  6  7  1  0
  7  8  1  0
  8  9  2  0
M  END
>  <docking_score>  (3) 
-3.5750000000000002

$$$$
