
     RDKit          3D

 42 42  0  0  0  0  0  0  0  0999 V2000
    4.3414    8.1764    6.1580 C   0  0  0  0  0  0  0  0  0  0  0  0
    3.8224    9.5092    6.6721 C   0  0  0  0  0  0  0  0  0  0  0  0
    3.1044   10.2526    5.5666 C   0  0  0  0  0  0  0  0  0  0  0  0
    4.0333   10.7907    4.5250 C   0  0  0  0  0  0  0  0  0  0  0  0
    4.2168   12.2690    4.5670 C   0  0  0  0  0  0  0  0  0  0  0  0
    5.1629   12.6746    5.6326 C   0  0  0  0  0  0  0  0  0  0  0  0
    4.7610   13.7043    6.5431 C   0  0  0  0  0  0  0  0  0  0  0  0
    3.5647   14.5052    6.6156 C   0  0  0  0  0  0  0  0  0  0  0  0
    3.1467   15.0559    5.2559 C   0  0  0  0  0  0  0  0  0  0  0  0
    2.4229   13.7389    7.2557 C   0  0  0  0  0  0  0  0  0  0  0  0
    5.6506   13.9607    7.4922 C   0  0  0  0  0  0  0  0  0  0  0  0
    6.4835   14.2435    8.4547 C   0  0  0  0  0  0  0  0  0  0  0  0
    7.3880   15.3343    8.1635 C   0  0  0  0  0  0  0  0  0  0  0  0
    7.7251   16.0642    9.4288 C   0  0  0  0  0  0  0  0  0  0  0  0
    7.2159   15.4181   10.6709 C   0  0  1  0  0  0  0  0  0  0  0  0
    5.7480   15.7239   10.8838 C   0  0  0  0  0  2  0  0  0  0  0  0
    6.3343   13.4061    9.6275 C   0  0  1  0  0  0  0  0  0  0  0  0
    6.4909   11.9405    9.3860 C   0  0  0  0  0  0  0  0  0  0  0  0
    7.3543   13.9054   10.6623 C   0  0  1  0  0  0  0  0  0  0  0  0
    8.7118   13.5035   10.1324 C   0  0  0  0  0  0  0  0  0  0  0  0
    9.2974   14.6750    9.3997 C   0  0  0  0  0  0  0  0  0  0  0  0
   10.3974   15.3010   10.2059 C   0  0  0  0  0  0  0  0  0  0  0  0
   10.6491   14.4146   11.4206 C   0  0  2  0  0  0  0  0  0  0  0  0
   11.3677   15.3572   12.4182 C   0  0  0  0  0  0  0  0  0  0  0  0
   11.6021   13.4384   11.1226 O   0  0  0  0  0  0  0  0  0  0  0  0
   11.1574   12.2088   10.8027 C   0  0  0  0  0  0  0  0  0  0  0  0
   11.5464   11.0646   11.6598 C   0  0  0  0  0  0  0  0  0  0  0  0
   12.9832   11.0282   12.0955 C   0  0  0  0  0  0  0  0  0  0  0  0
   10.7261   11.1877   12.9544 C   0  0  0  0  0  0  0  0  0  0  0  0
   11.2541    9.7184   11.0219 C   0  0  0  0  0  0  0  0  0  0  0  0
    9.8096    9.5366   10.6816 C   0  0  0  0  0  0  0  0  0  0  0  0
    8.8886    9.7039   11.8438 C   0  0  0  0  0  0  0  0  0  0  0  0
    7.5223   10.1012   11.3306 C   0  0  0  0  0  0  0  0  0  0  0  0
    6.5429   10.2211   12.4685 C   0  0  2  0  0  0  0  0  0  0  0  0
    5.3381    9.3698   12.1434 C   0  0  0  0  0  0  0  0  0  0  0  0
    5.7075    7.9278   11.8848 C   0  0  0  0  0  0  0  0  0  0  0  0
    6.1120   11.6570   12.6128 C   0  0  2  0  0  0  0  0  0  0  0  0
    6.1101   12.0933   14.0639 C   0  0  0  0  0  0  0  0  0  0  0  0
    4.6832   11.7736   12.1025 C   0  0  0  0  0  0  0  0  0  0  0  0
    4.0128   12.9092   12.7967 C   0  0  0  0  0  0  0  0  0  0  0  0
    2.8948   13.4072   12.3020 C   0  0  0  0  0  0  0  0  0  0  0  0
    2.2887   12.8684   11.0761 C   0  0  0  0  0  0  0  0  0  0  0  0
  1  2  1  0
  2  3  1  0
  3  4  1  0
  4  5  1  0
  5  6  1  0
  6  7  1  0
  7  8  1  0
  8  9  1  0
  8 10  1  0
  7 11  2  0
 11 12  2  0
 12 13  1  0
 13 14  1  0
 14 15  1  0
 15 16  1  6
 12 17  1  0
 17 18  1  6
 17 19  1  0
 19 20  1  6
 20 21  1  0
 21 22  1  0
 22 23  1  0
 23 24  1  1
 23 25  1  0
 25 26  1  0
 26 27  1  0
 27 28  1  0
 27 29  1  0
 27 30  1  0
 30 31  1  0
 31 32  1  0
 32 33  1  0
 34 33  1  6
 34 35  1  0
 35 36  1  0
 34 37  1  0
 37 38  1  1
 37 39  1  0
 39 40  1  0
 40 41  2  3
 41 42  1  0
 19 15  1  0
M  RAD  1  16   3
M  END
>  <docking_score>  (1) 
11.257999999999999

$$$$

     RDKit          3D

 42 42  0  0  0  0  0  0  0  0999 V2000
   12.2543   -3.8718   -4.8035 C   0  0  0  0  0  0  0  0  0  0  0  0
   13.3205   -3.4319   -3.8138 C   0  0  0  0  0  0  0  0  0  0  0  0
   14.6792   -3.9360   -4.2498 C   0  0  0  0  0  0  0  0  0  0  0  0
   15.7847   -3.4943   -3.3442 C   0  0  0  0  0  0  0  0  0  0  0  0
   15.3555   -3.1921   -1.9495 C   0  0  0  0  0  0  0  0  0  0  0  0
   16.3230   -3.7087   -0.9533 C   0  0  0  0  0  0  0  0  0  0  0  0
   17.6955   -3.8373   -1.3414 C   0  0  0  0  0  0  0  0  0  0  0  0
   18.9179   -3.4614   -0.6766 C   0  0  0  0  0  0  0  0  0  0  0  0
   19.7756   -2.5215   -1.5178 C   0  0  0  0  0  0  0  0  0  0  0  0
   18.6437   -2.8576    0.6875 C   0  0  0  0  0  0  0  0  0  0  0  0
   17.8686   -4.4107   -2.5243 C   0  0  0  0  0  0  0  0  0  0  0  0
   18.0968   -4.9812   -3.6743 C   0  0  0  0  0  0  0  0  0  0  0  0
   18.2297   -4.0621   -4.7835 C   0  0  0  0  0  0  0  0  0  0  0  0
   19.1782   -4.6264   -5.7980 C   0  0  0  0  0  0  0  0  0  0  0  0
   19.6113   -6.0263   -5.5295 C   0  0  1  0  0  0  0  0  0  0  0  0
   20.7041   -6.0690   -4.4819 C   0  0  0  0  0  2  0  0  0  0  0  0
   18.1731   -6.4265   -3.6097 C   0  0  1  0  0  0  0  0  0  0  0  0
   16.9578   -7.1034   -3.0660 C   0  0  0  0  0  0  0  0  0  0  0  0
   18.4875   -6.9185   -5.0309 C   0  0  1  0  0  0  0  0  0  0  0  0
   17.2308   -6.6836   -5.8375 C   0  0  0  0  0  0  0  0  0  0  0  0
   17.3399   -7.4604   -7.1169 C   0  0  0  0  0  0  0  0  0  0  0  0
   16.5211   -6.8129   -8.1950 C   0  0  0  0  0  0  0  0  0  0  0  0
   15.2503   -6.2677   -7.5528 C   0  0  2  0  0  0  0  0  0  0  0  0
   14.4922   -5.6179   -8.7374 C   0  0  0  0  0  0  0  0  0  0  0  0
   15.5514   -5.1969   -6.7086 O   0  0  0  0  0  0  0  0  0  0  0  0
   14.8214   -4.0737   -6.8402 C   0  0  0  0  0  0  0  0  0  0  0  0
   15.4005   -2.9298   -7.5827 C   0  0  0  0  0  0  0  0  0  0  0  0
   16.7294   -3.1763   -8.2377 C   0  0  0  0  0  0  0  0  0  0  0  0
   14.4274   -2.6144   -8.7307 C   0  0  0  0  0  0  0  0  0  0  0  0
   15.5650   -1.6875   -6.7259 C   0  0  0  0  0  0  0  0  0  0  0  0
   16.9945   -1.3819   -6.4116 C   0  0  0  0  0  0  0  0  0  0  0  0
   17.3797   -1.6760   -5.0001 C   0  0  0  0  0  0  0  0  0  0  0  0
   18.8678   -1.9420   -4.9456 C   0  0  0  0  0  0  0  0  0  0  0  0
   19.4950   -1.2102   -3.7882 C   0  0  2  0  0  0  0  0  0  0  0  0
   18.7756    0.1074   -3.6197 C   0  0  0  0  0  0  0  0  0  0  0  0
   17.5875   -0.0021   -2.6928 C   0  0  0  0  0  0  0  0  0  0  0  0
   20.9479   -0.9482   -4.0860 C   0  0  2  0  0  0  0  0  0  0  0  0
   21.3824    0.4120   -3.5790 C   0  0  0  0  0  0  0  0  0  0  0  0
   21.1262   -0.9470   -5.5972 C   0  0  0  0  0  0  0  0  0  0  0  0
   20.8118    0.4126   -6.1203 C   0  0  0  0  0  0  0  0  0  0  0  0
   20.9260    0.6565   -7.4126 C   0  0  0  0  0  0  0  0  0  0  0  0
   21.3579   -0.3840   -8.3567 C   0  0  0  0  0  0  0  0  0  0  0  0
  1  2  1  0
  2  3  1  0
  3  4  1  0
  4  5  1  0
  5  6  1  0
  6  7  1  0
  7  8  1  0
  8  9  1  0
  8 10  1  0
  7 11  2  0
 11 12  2  0
 12 13  1  0
 13 14  1  0
 14 15  1  0
 15 16  1  1
 12 17  1  0
 17 18  1  6
 17 19  1  0
 19 20  1  6
 20 21  1  0
 21 22  1  0
 22 23  1  0
 23 24  1  6
 23 25  1  0
 25 26  1  0
 26 27  1  0
 27 28  1  0
 27 29  1  0
 27 30  1  0
 30 31  1  0
 31 32  1  0
 32 33  1  0
 34 33  1  6
 34 35  1  0
 35 36  1  0
 34 37  1  0
 37 38  1  6
 37 39  1  0
 39 40  1  0
 40 41  2  3
 41 42  1  0
 19 15  1  0
M  RAD  1  16   3
M  END
>  <docking_score>  (2) 
11.509

$$$$
