
     RDKit          3D

 43 43  0  0  0  0  0  0  0  0999 V2000
    7.3812   12.3457    4.8961 O   0  0  0  0  0  0  0  0  0  0  0  0
    5.9182   12.4479    4.8629 C   0  0  0  0  0  0  0  0  0  0  0  0
    5.3795   11.4403    5.8428 C   0  0  0  0  0  3  0  0  0  0  0  0
    5.3041   10.1498    5.2300 N   0  0  0  0  0  0  0  0  0  0  0  0
    3.9877    9.8487    4.6521 C   0  0  2  0  0  0  0  0  0  0  0  0
    3.1434   11.0722    5.0265 C   0  0  0  0  0  0  0  0  0  0  0  0
    2.4768   10.8053    6.2287 O   0  0  0  0  0  0  0  0  0  0  0  0
    3.4932    8.5981    5.3961 C   0  0  1  0  0  0  0  0  0  0  0  0
    3.7910    7.5084    4.5489 O   0  0  0  0  0  0  0  0  0  0  0  0
    4.2853    8.4201    6.6585 C   0  0  2  0  0  0  0  0  0  0  0  0
    4.4841    7.0584    6.9738 O   0  0  0  0  0  0  0  0  0  0  0  0
    3.5878    9.0699    7.8535 C   0  0  1  0  0  0  0  0  0  0  0  0
    2.2578    8.6375    7.8933 O   0  0  0  0  0  0  0  0  0  0  0  0
    4.3566    8.6531    9.0908 C   0  0  0  0  0  0  0  0  0  0  0  0
    3.7675    9.1054   10.2599 O   0  0  0  0  0  0  0  0  0  0  0  0
    3.8734    8.0932   11.2174 C   0  0  1  0  0  0  0  0  0  0  0  0
    5.1434    7.3219   10.8883 C   0  0  0  0  0  0  0  0  0  0  0  0
    3.9873    8.7215   12.5994 C   0  0  0  0  0  0  0  0  0  0  0  0
    5.3130    9.0361   12.8434 O   0  0  0  0  0  0  0  0  0  0  0  0
    5.4860   10.2941   13.2904 N   0  0  0  0  0  3  0  0  0  0  0  0
    4.3398   10.9864   13.3983 O   0  0  0  0  0  1  0  0  0  0  0  0
    6.4240   10.9594   12.4138 C   0  0  0  0  0  0  0  0  0  0  0  0
    6.5739   12.2775   12.8671 O   0  0  0  0  0  0  0  0  0  0  0  0
    7.9148   12.6331   12.7725 C   0  0  1  0  0  0  0  0  0  0  0  0
    8.6122   11.7303   11.9806 O   0  0  0  0  0  0  0  0  0  0  0  0
    7.9991   13.9946   12.0980 C   0  0  0  0  0  3  0  0  0  0  0  0
    8.8211   14.8043   12.8675 O   0  0  0  0  0  0  0  0  0  0  0  0
    9.5486   15.6289   11.9986 C   0  0  0  0  0  0  0  0  0  0  0  0
    8.7324   16.0748   10.9547 O   0  0  0  0  0  0  0  0  0  0  0  0
    8.9319   15.3472    9.8876 O   0  0  0  0  0  0  0  0  0  0  0  0
    7.9320   15.6904    8.9643 C   0  0  0  0  0  0  0  0  0  0  0  0
    8.5947   16.0744    7.7997 O   0  0  0  0  0  0  0  0  0  0  0  0
    8.4337   15.0358    6.8740 C   0  0  2  0  0  0  0  0  0  0  0  0
    9.1346   15.3625    5.7263 O   0  0  0  0  0  0  0  0  0  0  0  0
    7.0553   14.9050    6.6385 O   0  0  0  0  0  0  0  0  0  0  0  0
    6.8050   14.5528    5.3855 O   0  0  0  0  0  0  0  0  0  0  0  0
    7.6988   13.7352    4.8561 C   0  0  2  0  0  0  0  0  0  0  0  0
    8.0835   14.0104    3.5335 O   0  0  0  0  0  0  0  0  0  0  0  0
    7.9065   12.8581    2.9115 O   0  0  0  0  0  0  0  0  0  0  0  0
    7.0257   11.9744    3.3204 C   0  0  0  0  0  3  0  0  0  0  0  0
    5.9660   11.7353    2.2791 C   0  0  0  0  0  3  0  0  0  0  0  0
    6.3741   10.7335    1.2339 C   0  0  0  0  0  3  0  0  0  0  0  0
    6.9591   11.4275    0.0128 C   0  0  0  0  0  2  0  0  0  0  0  0
  1  2  1  0
  2  3  1  0
  3  4  1  0
  4  5  1  0
  5  6  1  1
  6  7  1  0
  5  8  1  0
  8  9  1  6
  8 10  1  0
 10 11  1  1
 10 12  1  0
 12 13  1  1
 12 14  1  0
 14 15  1  0
 15 16  1  0
 16 17  1  6
 16 18  1  0
 18 19  1  0
 19 20  1  0
 20 21  1  0
 20 22  1  0
 22 23  1  0
 23 24  1  0
 24 25  1  6
 24 26  1  0
 26 27  1  0
 27 28  1  0
 28 29  1  0
 29 30  1  0
 30 31  1  0
 31 32  1  0
 32 33  1  0
 33 34  1  6
 33 35  1  0
 35 36  1  0
 36 37  1  0
 37 38  1  6
 38 39  1  0
 39 40  1  0
 40 41  1  0
 41 42  1  0
 42 43  1  0
 37  1  1  0
M  CHG  2  20   1  21  -1
M  RAD  7   3   2  20   2  26   2  40   2  41   2  42   2  43   3
M  END
>  <docking_score>  (1) 
0.032000000000000001

$$$$
