
     RDKit          3D

 33 34  0  0  0  0  0  0  0  0999 V2000
   16.7998   -9.2824   -5.0125 C   0  0  0  0  0  0  0  0  0  0  0  0
   18.1545   -8.6089   -5.1552 C   0  0  1  0  0  0  0  0  0  0  0  0
   18.9504   -9.3200   -6.1713 C   0  0  0  0  0  0  0  0  0  0  0  0
   18.9564   -8.6146   -7.4941 C   0  0  2  0  0  0  0  0  0  0  0  0
   19.6212   -9.3157   -8.4770 O   0  0  0  0  0  0  0  0  0  0  0  0
   19.5629   -7.2468   -7.2528 C   0  0  2  0  0  0  0  0  0  0  0  0
   20.7830   -7.3517   -6.5870 O   0  0  0  0  0  0  0  0  0  0  0  0
   18.6212   -6.4677   -6.4060 C   0  0  1  0  0  0  0  0  0  0  0  0
   17.6469   -5.9033   -7.2482 O   0  0  0  0  0  0  0  0  0  0  0  0
   18.0661   -7.1536   -5.2348 C   0  0  1  0  0  0  0  0  0  0  0  0
   16.6757   -6.7436   -4.9831 N   0  0  0  0  0  0  0  0  0  0  0  0
   16.6182   -5.3734   -4.5211 C   0  0  0  0  0  3  0  0  0  0  0  0
   17.4883   -5.1292   -3.3291 C   0  0  0  0  0  0  0  0  0  0  0  0
   16.8753   -4.0579   -2.4580 C   0  0  1  0  0  0  0  0  0  0  0  0
   16.0769   -4.5674   -1.4530 O   0  0  0  0  0  0  0  0  0  0  0  0
   17.9094   -3.0756   -1.9554 C   0  0  2  0  0  0  0  0  0  0  0  0
   17.4518   -1.7919   -2.3102 O   0  0  0  0  0  0  0  0  0  0  0  0
   17.9374   -1.4619   -3.5046 O   0  0  0  0  0  0  0  0  0  0  0  0
   17.0870   -1.8446   -4.5219 C   0  0  1  0  0  0  0  0  0  0  0  0
   16.1248   -0.8434   -4.7236 O   0  0  0  0  0  0  0  0  0  0  0  0
   17.8660   -1.9890   -5.7950 C   0  0  2  0  0  0  0  0  0  0  0  0
   18.4881   -3.2192   -5.8785 O   0  0  0  0  0  0  0  0  0  0  0  0
   18.8265   -0.8497   -6.0371 C   0  0  2  0  0  0  0  0  0  0  0  0
   19.9668   -1.3256   -6.7052 O   0  0  0  0  0  0  0  0  0  0  0  0
   19.1829   -0.2246   -4.8573 O   0  0  0  0  0  0  0  0  0  0  0  0
   20.5459    0.0451   -4.8627 C   0  0  0  0  0  3  0  0  0  0  0  0
   20.7896    1.2269   -5.5797 O   0  0  0  0  0  0  0  0  0  0  0  0
   20.9952    0.2828   -3.5586 O   0  0  0  0  0  0  0  0  0  0  0  0
   21.0844   -0.8993   -2.9649 O   0  0  0  0  0  0  0  0  0  0  0  0
   20.8349   -0.7974   -1.5929 C   0  0  0  0  0  3  0  0  0  0  0  0
   19.9905   -1.8395   -1.1737 O   0  0  0  0  0  0  0  0  0  0  0  0
   20.2159   -2.9005   -2.0495 C   0  0  0  0  0  0  0  0  0  0  0  0
   19.0723   -3.3012   -2.6967 O   0  0  0  0  0  0  0  0  0  0  0  0
  2  1  1  6
  2  3  1  0
  3  4  1  0
  4  5  1  6
  4  6  1  0
  6  7  1  1
  6  8  1  0
  8  9  1  6
  8 10  1  0
 10 11  1  6
 11 12  1  0
 12 13  1  0
 13 14  1  0
 14 15  1  1
 14 16  1  0
 16 17  1  6
 17 18  1  0
 18 19  1  0
 19 20  1  6
 19 21  1  0
 21 22  1  1
 21 23  1  0
 23 24  1  1
 23 25  1  0
 25 26  1  0
 26 27  1  0
 26 28  1  0
 28 29  1  0
 29 30  1  0
 30 31  1  0
 31 32  1  0
 32 33  1  0
 10  2  1  0
 33 16  1  0
M  RAD  3  12   2  26   2  30   2
M  END
>  <docking_score>  (1) 
-3.9409999999999998

$$$$

     RDKit          3D

 33 34  0  0  0  0  0  0  0  0999 V2000
    2.2575    8.7605    7.2913 C   0  0  0  0  0  0  0  0  0  0  0  0
    3.7276    8.5093    6.9999 C   0  0  1  0  0  0  0  0  0  0  0  0
    3.8503    7.4845    5.9480 C   0  0  0  0  0  0  0  0  0  0  0  0
    4.1411    8.0749    4.6011 C   0  0  2  0  0  0  0  0  0  0  0  0
    4.1676    7.1348    3.5937 O   0  0  0  0  0  0  0  0  0  0  0  0
    5.4557    8.8184    4.7290 C   0  0  2  0  0  0  0  0  0  0  0  0
    6.4387    8.0028    5.2872 O   0  0  0  0  0  0  0  0  0  0  0  0
    5.2395    9.9871    5.6224 C   0  0  1  0  0  0  0  0  0  0  0  0
    4.7069   11.0323    4.8471 O   0  0  0  0  0  0  0  0  0  0  0  0
    4.5043    9.7385    6.8665 C   0  0  1  0  0  0  0  0  0  0  0  0
    3.6529   10.8842    7.2235 N   0  0  0  0  0  0  0  0  0  0  0  0
    4.1498   11.5450    8.4112 C   0  0  0  0  0  3  0  0  0  0  0  0
    3.1510   11.5586    9.5247 C   0  0  0  0  0  0  0  0  0  0  0  0
    3.8346   11.2258   10.8303 C   0  0  1  0  0  0  0  0  0  0  0  0
    3.9401    9.8676   11.0563 O   0  0  0  0  0  0  0  0  0  0  0  0
    5.1487   11.9581   10.9846 C   0  0  2  0  0  0  0  0  0  0  0  0
    5.7554   11.4558   12.1520 O   0  0  0  0  0  0  0  0  0  0  0  0
    5.3916   12.1973   13.1956 O   0  0  0  0  0  0  0  0  0  0  0  0
    4.2519   11.7032   13.7969 C   0  0  1  0  0  0  0  0  0  0  0  0
    4.6089   10.7129   14.7247 O   0  0  0  0  0  0  0  0  0  0  0  0
    3.5677   12.8051   14.5495 C   0  0  2  0  0  0  0  0  0  0  0  0
    2.7741   13.5749   13.7219 O   0  0  0  0  0  0  0  0  0  0  0  0
    4.5180   13.6461   15.3674 C   0  0  2  0  0  0  0  0  0  0  0  0
    4.0597   14.9732   15.4094 O   0  0  0  0  0  0  0  0  0  0  0  0
    5.8046   13.5944   14.8657 O   0  0  0  0  0  0  0  0  0  0  0  0
    6.3666   14.8650   14.8845 C   0  0  0  0  0  3  0  0  0  0  0  0
    6.8624   15.1422   16.1680 O   0  0  0  0  0  0  0  0  0  0  0  0
    7.4686   14.9173   14.0231 O   0  0  0  0  0  0  0  0  0  0  0  0
    6.9857   14.9912   12.7905 O   0  0  0  0  0  0  0  0  0  0  0  0
    7.8418   14.3743   11.8732 C   0  0  0  0  0  3  0  0  0  0  0  0
    7.1039   13.5851   10.9747 O   0  0  0  0  0  0  0  0  0  0  0  0
    5.8392   14.1659   10.8929 C   0  0  0  0  0  0  0  0  0  0  0  0
    4.8362   13.2952   11.2438 O   0  0  0  0  0  0  0  0  0  0  0  0
  2  1  1  6
  2  3  1  0
  3  4  1  0
  4  5  1  6
  4  6  1  0
  6  7  1  1
  6  8  1  0
  8  9  1  6
  8 10  1  0
 10 11  1  6
 11 12  1  0
 12 13  1  0
 13 14  1  0
 14 15  1  6
 14 16  1  0
 16 17  1  1
 17 18  1  0
 18 19  1  0
 19 20  1  1
 19 21  1  0
 21 22  1  6
 21 23  1  0
 23 24  1  6
 23 25  1  0
 25 26  1  0
 26 27  1  0
 26 28  1  0
 28 29  1  0
 29 30  1  0
 30 31  1  0
 31 32  1  0
 32 33  1  0
 10  2  1  0
 33 16  1  0
M  RAD  3  12   2  26   2  30   2
M  END
>  <docking_score>  (2) 
-3.7450000000000001

$$$$

     RDKit          3D

 33 34  0  0  0  0  0  0  0  0999 V2000
    5.8611   10.0651   11.9271 C   0  0  0  0  0  0  0  0  0  0  0  0
    4.6567    9.9862   12.8505 C   0  0  1  0  0  0  0  0  0  0  0  0
    4.8563   10.8933   13.9945 C   0  0  0  0  0  0  0  0  0  0  0  0
    4.1011   12.1798   13.8469 C   0  0  2  0  0  0  0  0  0  0  0  0
    4.3517   13.0732   14.8660 O   0  0  0  0  0  0  0  0  0  0  0  0
    2.6339   11.8122   13.7519 C   0  0  2  0  0  0  0  0  0  0  0  0
    2.2592   10.9763   14.8026 O   0  0  0  0  0  0  0  0  0  0  0  0
    2.4210   11.0921   12.4685 C   0  0  1  0  0  0  0  0  0  0  0  0
    2.2611   12.0527   11.4542 O   0  0  0  0  0  0  0  0  0  0  0  0
    3.3833   10.0362   12.1378 C   0  0  1  0  0  0  0  0  0  0  0  0
    3.6419    9.9815   10.6904 N   0  0  0  0  0  0  0  0  0  0  0  0
    4.0686   11.2722   10.1941 C   0  0  0  0  0  3  0  0  0  0  0  0
    4.5167   11.2227    8.7678 C   0  0  0  0  0  0  0  0  0  0  0  0
    3.4472   10.5789    7.9167 C   0  0  1  0  0  0  0  0  0  0  0  0
    2.4399   11.4531    7.5589 O   0  0  0  0  0  0  0  0  0  0  0  0
    4.0330    9.8326    6.7391 C   0  0  2  0  0  0  0  0  0  0  0  0
    5.2748   10.4342    6.4579 O   0  0  0  0  0  0  0  0  0  0  0  0
    5.1049   11.4066    5.5652 O   0  0  0  0  0  0  0  0  0  0  0  0
    4.8636   12.6203    6.1761 C   0  0  1  0  0  0  0  0  0  0  0  0
    6.0863   13.2315    6.4927 O   0  0  0  0  0  0  0  0  0  0  0  0
    4.1381   13.5225    5.2231 C   0  0  2  0  0  0  0  0  0  0  0  0
    2.7792   13.2766    5.2184 O   0  0  0  0  0  0  0  0  0  0  0  0
    4.7219   13.5100    3.8308 C   0  0  2  0  0  0  0  0  0  0  0  0
    3.6982   13.6927    2.8865 O   0  0  0  0  0  0  0  0  0  0  0  0
    5.4099   12.3385    3.5776 O   0  0  0  0  0  0  0  0  0  0  0  0
    5.1154   11.8894    2.2962 C   0  0  0  0  0  3  0  0  0  0  0  0
    5.9088   12.5745    1.3627 O   0  0  0  0  0  0  0  0  0  0  0  0
    5.4503   10.5361    2.1710 O   0  0  0  0  0  0  0  0  0  0  0  0
    4.4979    9.8494    2.7870 O   0  0  0  0  0  0  0  0  0  0  0  0
    5.0009    8.6659    3.3359 C   0  0  0  0  0  3  0  0  0  0  0  0
    4.4990    8.4810    4.6353 O   0  0  0  0  0  0  0  0  0  0  0  0
    3.2644    9.1276    4.6722 C   0  0  0  0  0  0  0  0  0  0  0  0
    3.2067   10.0973    5.6436 O   0  0  0  0  0  0  0  0  0  0  0  0
  2  1  1  6
  2  3  1  0
  3  4  1  0
  4  5  1  1
  4  6  1  0
  6  7  1  1
  6  8  1  0
  8  9  1  6
  8 10  1  0
 10 11  1  6
 11 12  1  0
 12 13  1  0
 13 14  1  0
 14 15  1  6
 14 16  1  0
 16 17  1  6
 17 18  1  0
 18 19  1  0
 19 20  1  6
 19 21  1  0
 21 22  1  6
 21 23  1  0
 23 24  1  6
 23 25  1  0
 25 26  1  0
 26 27  1  0
 26 28  1  0
 28 29  1  0
 29 30  1  0
 30 31  1  0
 31 32  1  0
 32 33  1  0
 10  2  1  0
 33 16  1  0
M  RAD  3  12   2  26   2  30   2
M  END
>  <docking_score>  (3) 
-1.8660000000000001

$$$$
