
     RDKit          3D

 29 30  0  0  0  0  0  0  0  0999 V2000
   14.4281   -6.4399   -5.1513 C   0  0  0  0  0  0  0  0  0  0  0  0
   15.3133   -6.0034   -6.3123 C   0  0  1  0  0  0  0  0  0  0  0  0
   15.2559   -4.5061   -6.3794 C   0  0  0  0  0  0  0  0  0  0  0  0
   16.6149   -3.8445   -6.2505 C   0  0  2  0  0  0  0  0  0  0  0  0
   17.3253   -3.8398   -7.4337 O   0  0  0  0  0  0  0  0  0  0  0  0
   17.4229   -4.3222   -5.1109 C   0  0  2  0  0  0  0  0  0  0  0  0
   18.8033   -4.3312   -5.5278 O   0  0  0  0  0  0  0  0  0  0  0  0
   17.1515   -5.7635   -4.7385 C   0  0  1  0  0  0  0  0  0  0  0  0
   16.2207   -5.9245   -3.7280 O   0  0  0  0  0  0  0  0  0  0  0  0
   16.7144   -6.4466   -6.0311 C   0  0  1  0  0  0  0  0  0  0  0  0
   16.7900   -7.8893   -5.8671 N   0  0  0  0  0  0  0  0  0  0  0  0
   17.8720   -8.1448   -4.9494 C   0  0  0  0  0  3  0  0  0  0  0  0
   19.0658   -7.3447   -5.2538 C   0  0  2  0  0  0  0  0  0  0  0  0
   20.1388   -8.0643   -6.0932 C   0  0  0  0  0  0  0  0  0  0  0  0
   19.8407   -7.8054   -7.4425 O   0  0  0  0  0  0  0  0  0  0  0  0
   20.5310   -6.7277   -7.9124 C   0  0  0  0  0  3  0  0  0  0  0  0
   19.7675   -5.7246   -8.4387 O   0  0  0  0  0  0  0  0  0  0  0  0
   19.7788   -6.7547   -4.0509 C   0  0  1  0  0  0  0  0  0  0  0  0
   20.6380   -7.6873   -3.4604 O   0  0  0  0  0  0  0  0  0  0  0  0
   20.4405   -5.4329   -4.3162 C   0  0  2  0  0  0  0  0  0  0  0  0
   21.3726   -5.2254   -3.3198 O   0  0  0  0  0  0  0  0  0  0  0  0
   19.3994   -4.2777   -4.1799 C   0  0  1  0  0  0  0  0  0  0  0  0
   20.1336   -3.0552   -4.3041 O   0  0  0  0  0  0  0  0  0  0  0  0
   19.8404   -2.1563   -2.8704 S   0  0  0  0  0  0  0  0  0  0  0  0
   18.2503   -2.4403   -2.1528 C   0  0  0  0  0  3  0  0  0  0  0  0
   17.2169   -1.7204   -2.9467 C   0  0  0  0  0  3  0  0  0  0  0  0
   15.9244   -2.1785   -2.8103 O   0  0  0  0  0  0  0  0  0  0  0  0
   15.0641   -1.1223   -3.0989 C   0  0  0  0  0  3  0  0  0  0  0  0
   14.6808   -1.2305   -4.5554 C   0  0  0  0  0  2  0  0  0  0  0  0
  2  1  1  1
  2  3  1  0
  3  4  1  0
  4  5  1  6
  4  6  1  0
  6  7  1  6
  6  8  1  0
  8  9  1  1
  8 10  1  0
 10 11  1  1
 11 12  1  0
 12 13  1  0
 13 14  1  1
 14 15  1  0
 15 16  1  0
 16 17  1  0
 13 18  1  0
 18 19  1  6
 18 20  1  0
 20 21  1  1
 20 22  1  0
 22 23  1  6
 23 24  1  0
 24 25  1  0
 25 26  1  0
 26 27  1  0
 27 28  1  0
 28 29  1  0
 10  2  1  0
 22  7  1  0
M  RAD  6  12   2  16   2  25   2  26   2  28   2  29   3
M  END
>  <docking_score>  (1) 
-3.629

$$$$

     RDKit          3D

 29 30  0  0  0  0  0  0  0  0999 V2000
   13.8236   -4.0709   -5.5098 C   0  0  0  0  0  0  0  0  0  0  0  0
   14.6262   -4.6338   -6.6763 C   0  0  1  0  0  0  0  0  0  0  0  0
   14.9813   -3.4833   -7.5707 C   0  0  0  0  0  0  0  0  0  0  0  0
   16.4754   -3.3166   -7.7737 C   0  0  2  0  0  0  0  0  0  0  0  0
   16.9881   -4.1747   -8.7253 O   0  0  0  0  0  0  0  0  0  0  0  0
   17.2670   -3.3205   -6.5275 C   0  0  2  0  0  0  0  0  0  0  0  0
   18.5182   -3.9804   -6.8072 O   0  0  0  0  0  0  0  0  0  0  0  0
   16.6573   -4.1600   -5.4260 C   0  0  1  0  0  0  0  0  0  0  0  0
   15.8677   -3.4495   -4.5399 O   0  0  0  0  0  0  0  0  0  0  0  0
   15.8722   -5.2601   -6.1343 C   0  0  1  0  0  0  0  0  0  0  0  0
   15.5631   -6.3210   -5.1894 N   0  0  0  0  0  0  0  0  0  0  0  0
   16.6465   -6.3567   -4.2390 C   0  0  0  0  0  3  0  0  0  0  0  0
   17.9624   -6.2660   -4.8856 C   0  0  2  0  0  0  0  0  0  0  0  0
   18.6645   -7.6151   -5.1318 C   0  0  0  0  0  0  0  0  0  0  0  0
   17.6539   -8.5876   -5.2290 O   0  0  0  0  0  0  0  0  0  0  0  0
   17.6618   -9.2015   -6.4464 C   0  0  0  0  0  3  0  0  0  0  0  0
   17.6793   -8.3650   -7.5263 O   0  0  0  0  0  0  0  0  0  0  0  0
   18.9711   -5.3724   -4.1874 C   0  0  1  0  0  0  0  0  0  0  0  0
   19.6081   -6.0456   -3.1396 O   0  0  0  0  0  0  0  0  0  0  0  0
   19.9329   -4.6888   -5.1163 C   0  0  2  0  0  0  0  0  0  0  0  0
   21.0143   -4.2738   -4.3659 O   0  0  0  0  0  0  0  0  0  0  0  0
   19.2859   -3.3910   -5.6943 C   0  0  1  0  0  0  0  0  0  0  0  0
   20.3082   -2.7307   -6.4477 O   0  0  0  0  0  0  0  0  0  0  0  0
   20.0276   -1.0440   -6.2867 S   0  0  0  0  0  0  0  0  0  0  0  0
   19.2631   -0.5818   -4.7616 C   0  0  0  0  0  3  0  0  0  0  0  0
   20.2606   -0.6826   -3.6611 C   0  0  0  0  0  3  0  0  0  0  0  0
   20.0170   -1.6531   -2.7136 O   0  0  0  0  0  0  0  0  0  0  0  0
   19.8734   -1.0207   -1.4813 C   0  0  0  0  0  3  0  0  0  0  0  0
   20.9192    0.0655   -1.4010 C   0  0  0  0  0  2  0  0  0  0  0  0
  2  1  1  1
  2  3  1  0
  3  4  1  0
  4  5  1  6
  4  6  1  0
  6  7  1  6
  6  8  1  0
  8  9  1  6
  8 10  1  0
 10 11  1  1
 11 12  1  0
 12 13  1  0
 13 14  1  1
 14 15  1  0
 15 16  1  0
 16 17  1  0
 13 18  1  0
 18 19  1  1
 18 20  1  0
 20 21  1  1
 20 22  1  0
 22 23  1  6
 23 24  1  0
 24 25  1  0
 25 26  1  0
 26 27  1  0
 27 28  1  0
 28 29  1  0
 10  2  1  0
 22  7  1  0
M  RAD  6  12   2  16   2  25   2  26   2  28   2  29   3
M  END
>  <docking_score>  (2) 
-3.5470000000000002

$$$$

     RDKit          3D

 29 30  0  0  0  0  0  0  0  0999 V2000
   16.2299   -1.1608   -1.3453 C   0  0  0  0  0  0  0  0  0  0  0  0
   15.5874   -2.0505   -2.4025 C   0  0  1  0  0  0  0  0  0  0  0  0
   15.2342   -1.1753   -3.5683 C   0  0  0  0  0  0  0  0  0  0  0  0
   15.8854   -1.6103   -4.8675 C   0  0  2  0  0  0  0  0  0  0  0  0
   15.2163   -2.6484   -5.4834 O   0  0  0  0  0  0  0  0  0  0  0  0
   17.3383   -1.8548   -4.7724 C   0  0  2  0  0  0  0  0  0  0  0  0
   17.6526   -2.9609   -5.6425 O   0  0  0  0  0  0  0  0  0  0  0  0
   17.7832   -2.3343   -3.4079 C   0  0  1  0  0  0  0  0  0  0  0  0
   18.2255   -1.3285   -2.5677 O   0  0  0  0  0  0  0  0  0  0  0  0
   16.5871   -3.0806   -2.8244 C   0  0  1  0  0  0  0  0  0  0  0  0
   17.0223   -3.8885   -1.6965 N   0  0  0  0  0  0  0  0  0  0  0  0
   18.3784   -4.2906   -1.9750 C   0  0  0  0  0  3  0  0  0  0  0  0
   18.5538   -4.7498   -3.3593 C   0  0  2  0  0  0  0  0  0  0  0  0
   18.4846   -6.2763   -3.5557 C   0  0  0  0  0  0  0  0  0  0  0  0
   17.5930   -6.5097   -4.6174 O   0  0  0  0  0  0  0  0  0  0  0  0
   17.9219   -7.6357   -5.3122 C   0  0  0  0  0  3  0  0  0  0  0  0
   16.8803   -8.4680   -5.6097 O   0  0  0  0  0  0  0  0  0  0  0  0
   19.8236   -4.2806   -4.0454 C   0  0  1  0  0  0  0  0  0  0  0  0
   20.9128   -5.0920   -3.7104 O   0  0  0  0  0  0  0  0  0  0  0  0
   19.6810   -4.0717   -5.5257 C   0  0  2  0  0  0  0  0  0  0  0  0
   20.9489   -4.0686   -6.0708 O   0  0  0  0  0  0  0  0  0  0  0  0
   19.0860   -2.6569   -5.8104 C   0  0  1  0  0  0  0  0  0  0  0  0
   19.1170   -2.4837   -7.2309 O   0  0  0  0  0  0  0  0  0  0  0  0
   18.1336   -3.7224   -7.9003 S   0  0  0  0  0  0  0  0  0  0  0  0
   16.6932   -3.1286   -8.7351 C   0  0  0  0  0  3  0  0  0  0  0  0
   15.5138   -3.9332   -8.3134 C   0  0  0  0  0  3  0  0  0  0  0  0
   15.7459   -5.2736   -8.0933 O   0  0  0  0  0  0  0  0  0  0  0  0
   14.9576   -5.6726   -7.0170 C   0  0  0  0  0  3  0  0  0  0  0  0
   13.5128   -5.5404   -7.4355 C   0  0  0  0  0  2  0  0  0  0  0  0
  2  1  1  1
  2  3  1  0
  3  4  1  0
  4  5  1  1
  4  6  1  0
  6  7  1  6
  6  8  1  0
  8  9  1  1
  8 10  1  0
 10 11  1  1
 11 12  1  0
 12 13  1  0
 13 14  1  1
 14 15  1  0
 15 16  1  0
 16 17  1  0
 13 18  1  0
 18 19  1  6
 18 20  1  0
 20 21  1  6
 20 22  1  0
 22 23  1  6
 23 24  1  0
 24 25  1  0
 25 26  1  0
 26 27  1  0
 27 28  1  0
 28 29  1  0
 10  2  1  0
 22  7  1  0
M  RAD  6  12   2  16   2  25   2  26   2  28   2  29   3
M  END
>  <docking_score>  (3) 
-3.536

$$$$
