
     RDKit          3D

 85 89  0  0  0  0  0  0  0  0999 V2000
    9.3550  -11.7013    8.0443 C   0  0  0  0  0  0  0  0  0  0  0  0
    8.2856  -10.6810    8.2998 C   0  0  0  0  0  0  0  0  0  0  0  0
    7.6583   -9.9484    7.1509 C   0  0  0  0  0  0  0  0  0  0  0  0
    6.5888   -8.9280    7.4064 C   0  0  0  0  0  0  0  0  0  0  0  0
    5.9615   -8.1954    6.2577 O   0  0  0  0  0  0  0  0  0  0  0  0
    6.1468   -8.6403    8.8106 C   0  0  0  0  0  0  0  0  0  0  0  0
    5.0773   -7.6199    9.0661 O   0  0  0  0  0  0  0  0  0  0  0  0
    6.7742   -9.3730    9.9594 C   0  0  0  0  0  0  0  0  0  0  0  0
    6.3321   -9.0852   11.3636 O   0  0  0  0  0  0  0  0  0  0  0  0
    7.8435  -10.3933    9.7039 C   0  0  0  0  0  0  0  0  0  0  0  0
    8.4709  -11.1259   10.8528 N   0  0  0  0  0  0  0  0  0  0  0  0
    9.5128  -10.4500   11.6940 C   0  0  0  0  0  3  0  0  0  0  0  0
   10.8327  -10.0699   11.0912 C   0  0  0  0  0  0  0  0  0  0  0  0
   11.6369   -8.9539   11.6893 O   0  0  0  0  0  0  0  0  0  0  0  0
   11.9331   -8.9473   13.1597 C   0  0  0  0  0  0  0  0  0  0  0  0
   12.9246   -7.9715   13.7207 C   0  0  0  0  0  0  0  0  0  0  0  0
   12.4688   -6.6160   14.1736 C   0  0  0  0  0  0  0  0  0  0  0  0
   12.2897   -6.3350   15.6361 O   0  0  0  0  0  0  0  0  0  0  0  0
   14.3717   -8.3510   13.8289 C   0  0  0  0  0  0  0  0  0  0  0  0
   15.0919   -8.1968   15.1356 O   0  0  0  0  0  0  0  0  0  0  0  0
   15.0986   -8.8849   12.6303 C   0  0  0  0  0  0  0  0  0  0  0  0
   15.7003   -7.9378   11.6348 O   0  0  0  0  0  0  0  0  0  0  0  0
   15.2240  -10.3659   12.4272 C   0  0  0  0  0  3  0  0  0  0  0  0
   16.4734  -11.0781   12.8531 C   0  0  0  0  0  0  0  0  0  0  0  0
   17.8020  -10.6595   12.2966 O   0  0  0  0  0  0  0  0  0  0  0  0
   18.5924  -11.6099   11.4469 O   0  0  0  0  0  0  0  0  0  0  0  0
   17.8873  -12.6651   10.6472 O   0  0  0  0  0  0  0  0  0  0  0  0
   16.4237  -12.5274   10.3490 O   0  0  0  0  0  0  0  0  0  0  0  0
   15.9613  -11.5764    9.2853 C   0  0  0  0  0  3  0  0  0  0  0  0
   14.6809  -11.8391    8.5495 O   0  0  0  0  0  0  0  0  0  0  0  0
   13.3683  -11.4629    9.1703 C   0  0  0  0  0  0  0  0  0  0  0  0
   12.9294  -10.0286    9.1856 O   0  0  0  0  0  0  0  0  0  0  0  0
   12.5661   -9.3418    7.9024 O   0  0  0  0  0  0  0  0  0  0  0  0
   13.3165   -8.1176    7.4686 C   0  0  0  0  0  3  0  0  0  0  0  0
   13.9530   -8.0698    6.1111 O   0  0  0  0  0  0  0  0  0  0  0  0
   15.4454   -8.1423    5.9796 O   0  0  0  0  0  0  0  0  0  0  0  0
   16.2083   -6.9704    5.4368 C   0  0  0  0  0  3  0  0  0  0  0  0
   17.6554   -7.1214    5.0722 C   0  0  0  0  0  0  0  0  0  0  0  0
   18.6850   -7.3031    6.1479 N   0  0  0  0  0  0  0  0  0  0  0  0
   18.0731   -7.0906    3.6319 C   0  0  0  0  0  0  0  0  0  0  0  0
   17.2404   -6.3538    2.6250 C   0  0  0  0  0  0  0  0  0  0  0  0
   17.7336   -6.1929    1.2175 O   0  0  0  0  0  0  0  0  0  0  0  0
   17.0735   -5.2071    0.2996 C   0  0  0  0  0  3  0  0  0  0  0  0
   17.6527   -4.9428   -1.0586 C   0  0  0  0  0  0  0  0  0  0  0  0
   18.3490   -3.6436   -1.3371 C   0  0  0  0  0  0  0  0  0  0  0  0
   19.4496   -2.8504   -0.6972 C   0  0  0  0  0  3  0  0  0  0  0  0
   20.3992   -1.6993   -0.5451 C   0  0  0  0  0  0  0  0  0  0  0  0
   21.0335   -0.3892   -0.9073 C   0  0  0  0  0  0  0  0  0  0  0  0
   21.2429    0.8534   -1.7212 C   0  0  0  0  0  0  0  0  0  0  0  0
   20.9912    1.8135   -2.8458 C   0  0  0  0  0  3  0  0  0  0  0  0
   20.3220    2.3251   -4.0869 O   0  0  0  0  0  0  0  0  0  0  0  0
   19.3508    2.2998   -5.2298 C   0  0  0  0  0  3  0  0  0  0  0  0
   18.2457    1.7420   -6.0769 O   0  0  0  0  0  0  0  0  0  0  0  0
   17.1977    0.7481   -6.4817 C   0  0  0  0  0  0  0  0  0  0  0  0
   16.3880   -0.5100   -6.3743 O   0  0  0  0  0  0  0  0  0  0  0  0
   15.9567   -1.8149   -5.7731 C   0  0  0  0  0  3  0  0  0  0  0  0
   15.9783   -2.9408   -4.7822 O   0  0  0  0  0  0  0  0  0  0  0  0
   16.4491   -3.6931   -3.5729 C   0  0  0  0  0  0  0  0  0  0  0  0
   15.5647   -4.9044   -3.5953 C   0  0  0  0  0  0  0  0  0  0  0  0
   14.4979   -5.0735   -2.5543 C   0  0  0  0  0  2  0  0  0  0  0  0
   19.1071   -4.0258   -0.1005 O   0  0  0  0  0  0  0  0  0  0  0  0
   17.2877   -3.9417   -2.3543 C   0  0  0  0  0  0  0  0  0  0  0  0
   16.7519   -5.2564   -1.8700 S   0  0  1  0  0  0  0  0  0  0  0  0
   17.4175   -6.2881   -2.7317 O   0  0  0  0  0  0  0  0  0  0  0  0
   18.3605   -6.6393   -3.8441 C   0  0  0  0  0  0  0  0  0  0  0  0
   19.3281   -6.2158   -4.9092 O   0  0  0  0  0  0  0  0  0  0  0  0
   20.0612   -5.1312   -5.6415 O   0  0  0  0  0  0  0  0  0  0  0  0
   20.3631   -3.6761   -5.8448 C   0  0  0  0  0  0  0  0  0  0  0  0
   20.7522   -2.2602   -6.1515 O   0  0  0  0  0  0  0  0  0  0  0  0
   19.5132   -4.5359   -4.9570 C   0  0  0  0  0  3  0  0  0  0  0  0
   18.5271   -4.5113   -3.8270 O   0  0  0  0  0  0  0  0  0  0  0  0
   17.7813   -3.6116   -2.8865 C   0  0  0  0  0  0  0  0  0  0  0  0
   17.1641   -4.8471   -2.3013 C   0  0  0  0  0  0  0  0  0  0  0  0
   17.7969   -5.9254   -3.1301 C   0  0  0  0  0  0  0  0  0  0  0  0
   16.1740   -4.9567   -1.1799 O   0  0  0  0  0  0  0  0  0  0  0  0
   15.5565   -3.8579   -0.3667 C   0  0  0  0  0  0  0  0  0  0  0  0
   15.7767   -2.3781   -0.4741 C   0  0  0  0  0  0  0  0  0  0  0  0
   15.0025   -1.5329    0.4936 O   0  0  0  0  0  0  0  0  0  0  0  0
   16.6687   -1.6315   -1.4212 C   0  0  0  0  0  3  0  0  0  0  0  0
   17.5608   -2.1805   -2.4948 C   0  0  0  0  0  0  0  0  0  0  0  0
   17.9499   -0.7646   -2.8015 C   0  0  0  0  0  0  0  0  0  0  0  0
   18.7998    0.0952   -3.6894 O   0  0  0  0  0  0  0  0  0  0  0  0
   19.7860    0.0706   -4.8193 C   0  0  0  0  0  3  0  0  0  0  0  0
   20.5317   -0.8291   -5.7598 C   0  0  0  0  0  0  0  0  0  0  0  0
   21.3817    0.0307   -6.6477 O   0  0  0  0  0  0  0  0  0  0  0  0
  2  1  1  0
  2  3  1  0
  3  4  1  0
  4  5  1  0
  4  6  1  0
  6  7  1  0
  6  8  1  0
  8  9  1  0
  8 10  1  0
 10 11  1  0
 11 12  1  0
 12 13  1  0
 13 14  1  0
 14 15  1  0
 16 15  1  0
 16 17  1  0
 17 18  1  0
 16 19  1  0
 19 20  1  0
 19 21  1  0
 21 22  1  0
 21 23  1  0
 23 24  1  0
 24 25  1  0
 25 26  1  0
 26 27  1  0
 27 28  1  0
 28 29  1  0
 29 30  1  0
 30 31  1  0
 31 32  1  0
 32 33  1  0
 33 34  1  0
 34 35  1  0
 35 36  1  0
 36 37  1  0
 37 38  1  0
 38 39  1  0
 38 40  1  0
 40 41  1  0
 41 42  1  0
 42 43  1  0
 43 44  1  0
 44 45  1  0
 45 46  1  0
 46 47  1  0
 47 48  1  0
 48 49  1  0
 49 50  1  0
 50 51  1  0
 51 52  1  0
 52 53  1  0
 53 54  1  0
 54 55  1  0
 55 56  1  0
 56 57  1  0
 57 58  1  0
 58 59  1  0
 59 60  1  0
 45 61  1  0
 45 62  1  0
 62 63  1  0
 63 64  1  0
 64 65  1  0
 65 66  1  0
 66 67  1  0
 68 67  1  0
 68 69  1  0
 68 70  1  0
 70 71  1  0
 71 72  1  0
 72 73  1  0
 73 74  1  0
 73 75  1  0
 75 76  1  0
 76 77  1  0
 77 78  1  0
 77 79  1  0
 80 79  1  0
 80 81  1  0
 81 82  1  0
 82 83  1  0
 83 84  1  0
 84 85  1  0
 10  2  1  0
 62 58  1  0
 76 63  1  0
 84 69  1  0
 80 72  1  0
M  RAD  8  12   2  23   2  29   2  34   2  37   2  43   2  46   2  50   2
M  RAD  6  52   2  56   2  60   3  70   2  79   2  83   2
M  END
>  <docking_score>  (1) 
93.953999999999994

$$$$
