
     RDKit          3D

 42 44  0  0  0  0  0  0  0  0999 V2000
    2.2645    7.6481    3.9253 C   0  0  0  0  0  0  0  0  0  0  0  0
    2.8982    7.6099    5.2904 C   0  0  0  0  0  0  0  0  0  0  0  0
    3.6897    6.3417    5.4403 C   0  0  0  0  0  0  0  0  0  0  0  0
    3.7283    8.8169    5.5196 C   0  0  0  0  0  0  0  0  0  0  0  0
    3.4775    9.6914    6.5077 C   0  0  0  0  0  0  0  0  0  0  0  0
    2.3562    9.5634    7.4797 C   0  0  0  0  0  0  0  0  0  0  0  0
    2.7395    9.8497    8.8903 C   0  0  0  0  0  0  0  0  0  0  0  0
    2.6265    8.6107    9.7159 C   0  0  1  0  0  0  0  0  0  0  0  0
    2.2575    7.5671    8.8648 O   0  0  0  0  0  0  0  0  0  0  0  0
    3.9002    8.2897   10.4679 C   0  0  0  0  0  0  0  0  0  0  0  0
    3.6569    8.0531   11.9308 C   0  0  1  0  0  0  0  0  0  0  0  0
    4.7548    7.5849   12.6134 O   0  0  0  0  0  0  0  0  0  0  0  0
    3.2324    9.3753   12.5401 C   0  0  0  0  0  0  0  0  0  0  0  0
    4.4482   10.1776   12.9139 C   0  0  0  0  0  0  0  0  0  0  0  0
    4.4144   10.8536   13.9638 O   0  0  0  0  0  0  0  0  0  0  0  0
    5.5644   10.1455   12.0900 O   0  0  0  0  0  1  0  0  0  0  0  0
    4.4747   10.7456    6.4466 C   0  0  0  0  0  0  0  0  0  0  0  0
    4.5751   11.9085    7.3375 C   0  0  0  0  0  0  0  0  0  0  0  0
    5.4610   12.9327    7.0716 C   0  0  0  0  0  0  0  0  0  0  0  0
    5.5652   14.0323    7.8980 C   0  0  0  0  0  0  0  0  0  0  0  0
    4.7892   14.1626    9.0308 C   0  0  0  0  0  0  0  0  0  0  0  0
    4.9060   15.3575    9.9242 C   0  0  0  0  0  0  0  0  0  0  0  0
    3.9017   13.1442    9.3039 C   0  0  0  0  0  0  0  0  0  0  0  0
    3.8041   12.0487    8.4725 C   0  0  0  0  0  0  0  0  0  0  0  0
    5.3043   10.5141    5.4519 C   0  0  0  0  0  0  0  0  0  0  0  0
    4.9131    9.2738    4.7735 C   0  0  2  0  0  0  0  0  0  0  0  0
    4.6058    9.3867    3.3385 C   0  0  2  0  0  0  0  0  0  0  0  0
    3.7072    8.5297    2.7943 O   0  0  0  0  0  0  0  0  0  0  0  0
    3.2126    8.8907    1.5673 C   0  0  0  0  0  0  0  0  0  0  0  0
    2.2576   10.0500    1.7588 C   0  0  0  0  0  2  0  0  0  0  0  0
    5.7914    9.7450    2.5295 C   0  0  0  0  0  0  0  0  0  0  0  0
    6.5274   10.9530    3.0132 C   0  0  1  0  0  0  0  0  0  0  0  0
    7.7862   10.6997    3.5003 O   0  0  0  0  0  0  0  0  0  0  0  0
    6.4680   12.0355    1.9790 C   0  0  0  0  0  0  0  0  0  0  0  0
    7.8697   12.6392    1.8846 C   0  0  0  0  0  0  0  0  0  0  0  0
    7.6849   14.0232    1.2690 C   0  0  0  0  0  0  0  0  0  0  0  0
    7.6892   15.0051    2.4230 C   0  0  2  0  0  0  0  0  0  0  0  0
    7.5442   14.2495    3.7256 C   0  0  2  0  0  0  0  0  0  0  0  0
    6.1789   14.5302    4.3197 C   0  0  0  0  0  2  0  0  0  0  0  0
    6.8202   16.0713    2.2550 O   0  0  0  0  0  0  0  0  0  0  0  0
    9.0333   15.3262    2.9977 C   0  0  0  0  0  0  0  0  0  0  0  0
    8.5130   15.0898    4.2691 O   0  0  0  0  0  0  0  0  0  0  0  0
  1  2  1  0
  2  3  1  0
  2  4  1  0
  4  5  2  0
  5  6  1  0
  6  7  1  0
  7  8  1  0
  8  9  1  6
  8 10  1  0
 10 11  1  0
 11 12  1  1
 11 13  1  0
 13 14  1  0
 14 15  2  0
 14 16  1  0
  5 17  1  0
 17 18  1  0
 18 19  2  0
 19 20  1  0
 20 21  2  0
 21 22  1  0
 21 23  1  0
 23 24  2  0
 17 25  2  0
 26 25  1  1
 26 27  1  0
 27 28  1  0
 28 29  1  0
 29 30  1  0
 27 31  1  6
 31 32  1  0
 32 33  1  6
 32 34  1  0
 34 35  1  0
 35 36  1  0
 36 37  1  0
 37 38  1  0
 38 39  1  1
 37 40  1  6
 37 41  1  0
 41 42  1  0
 26  4  1  0
 24 18  1  0
 42 38  1  0
M  CHG  1  16  -1
M  RAD  2  30   3  39   3
M  END
>  <docking_score>  (1) 
-3.1309999999999998

$$$$
