
     RDKit          3D

 26 26  0  0  0  0  0  0  0  0999 V2000
   17.6837   -5.7552   -2.6935 O   0  0  0  0  0  0  0  0  0  0  0  0
   18.6004   -4.7707   -2.3475 C   0  0  0  0  0  0  0  0  0  0  0  0
   17.9356   -3.4854   -1.9655 C   0  0  0  0  0  3  0  0  0  0  0  0
   18.3261   -2.3576   -2.7450 N   0  0  0  0  0  0  0  0  0  0  0  0
   19.7402   -2.1717   -2.8743 C   0  0  2  0  0  0  0  0  0  0  0  0
   20.3023   -1.9314   -1.4777 C   0  0  0  0  0  0  0  0  0  0  0  0
   19.9813   -0.6591   -1.0565 O   0  0  0  0  0  0  0  0  0  0  0  0
   20.0182   -0.9771   -3.7379 C   0  0  1  0  0  0  0  0  0  0  0  0
   21.3594   -0.9566   -4.1233 O   0  0  0  0  0  0  0  0  0  0  0  0
   19.1753   -0.9966   -4.9758 C   0  0  2  0  0  0  0  0  0  0  0  0
   19.4266    0.0773   -5.7952 O   0  0  0  0  0  0  0  0  0  0  0  0
   17.8189   -1.0534   -4.5856 O   0  0  0  0  0  0  0  0  0  0  0  0
   17.6253   -2.2794   -3.9920 C   0  0  2  0  0  0  0  0  0  0  0  0
   16.1970   -2.6616   -3.7980 C   0  0  0  0  0  0  0  0  0  0  0  0
   15.3770   -1.5254   -3.7936 O   0  0  0  0  0  0  0  0  0  0  0  0
   14.3142   -1.6747   -4.6819 C   0  0  1  0  0  0  0  0  0  0  0  0
   14.5945   -0.7303   -5.8505 C   0  0  0  0  0  2  0  0  0  0  0  0
   14.3973   -3.0831   -5.2342 C   0  0  0  0  0  0  0  0  0  0  0  0
   14.7398   -3.1088   -6.5777 O   0  0  0  0  0  0  0  0  0  0  0  0
   15.2423   -4.3313   -6.9742 C   0  0  0  0  0  3  0  0  0  0  0  0
   16.5666   -4.1665   -7.3460 O   0  0  0  0  0  0  0  0  0  0  0  0
   17.2568   -5.2975   -6.8754 C   0  0  1  0  0  0  0  0  0  0  0  0
   18.4731   -4.8746   -6.1944 N   0  0  0  0  0  0  0  0  0  0  0  0
   16.3683   -6.0344   -5.9301 C   0  0  0  0  0  0  0  0  0  0  0  0
   16.5179   -7.3243   -5.8125 C   0  0  0  0  0  0  0  0  0  0  0  0
   17.4661   -8.0788   -6.5197 N   0  0  0  0  0  0  0  0  0  0  0  0
  1  2  1  0
  2  3  1  0
  3  4  1  0
  4  5  1  0
  5  6  1  1
  6  7  1  0
  5  8  1  0
  8  9  1  6
  8 10  1  0
 10 11  1  1
 10 12  1  0
 12 13  1  0
 13 14  1  1
 14 15  1  0
 15 16  1  0
 16 17  1  6
 16 18  1  0
 18 19  1  0
 19 20  1  0
 20 21  1  0
 21 22  1  0
 22 23  1  1
 22 24  1  0
 24 25  2  3
 25 26  1  0
 13  4  1  0
M  RAD  3   3   2  17   3  20   2
M  END
>  <docking_score>  (1) 
-3.819

$$$$

     RDKit          3D

 26 26  0  0  0  0  0  0  0  0999 V2000
   19.1029   -2.2266   -8.7392 O   0  0  0  0  0  0  0  0  0  0  0  0
   18.8461   -3.5757   -8.5309 C   0  0  0  0  0  0  0  0  0  0  0  0
   18.7775   -3.9223   -7.0767 C   0  0  0  0  0  3  0  0  0  0  0  0
   17.7693   -4.8711   -6.7368 N   0  0  0  0  0  0  0  0  0  0  0  0
   18.2588   -6.1270   -6.2528 C   0  0  2  0  0  0  0  0  0  0  0  0
   19.0751   -6.7647   -7.3714 C   0  0  0  0  0  0  0  0  0  0  0  0
   18.2453   -7.1176   -8.4137 O   0  0  0  0  0  0  0  0  0  0  0  0
   17.1055   -7.0204   -5.9032 C   0  0  1  0  0  0  0  0  0  0  0  0
   17.5459   -8.1136   -5.1557 O   0  0  0  0  0  0  0  0  0  0  0  0
   16.0773   -6.2865   -5.0986 C   0  0  2  0  0  0  0  0  0  0  0  0
   15.0193   -7.0894   -4.7469 O   0  0  0  0  0  0  0  0  0  0  0  0
   15.6578   -5.1600   -5.8404 O   0  0  0  0  0  0  0  0  0  0  0  0
   16.7363   -4.3093   -5.9187 C   0  0  2  0  0  0  0  0  0  0  0  0
   16.4122   -2.9300   -6.3839 C   0  0  0  0  0  0  0  0  0  0  0  0
   15.2594   -2.4512   -5.7473 O   0  0  0  0  0  0  0  0  0  0  0  0
   15.5246   -1.2689   -5.0599 C   0  0  1  0  0  0  0  0  0  0  0  0
   14.4750   -0.2583   -5.5217 C   0  0  0  0  0  2  0  0  0  0  0  0
   15.2487   -1.5405   -3.5951 C   0  0  0  0  0  0  0  0  0  0  0  0
   15.8738   -2.6917   -3.1402 O   0  0  0  0  0  0  0  0  0  0  0  0
   16.5861   -2.4847   -1.9766 C   0  0  0  0  0  3  0  0  0  0  0  0
   17.5603   -1.5296   -2.2175 O   0  0  0  0  0  0  0  0  0  0  0  0
   18.7401   -2.2312   -2.5223 C   0  0  1  0  0  0  0  0  0  0  0  0
   19.1372   -1.9395   -3.8931 N   0  0  0  0  0  0  0  0  0  0  0  0
   19.8072   -1.7963   -1.5746 C   0  0  0  0  0  0  0  0  0  0  0  0
   20.6323   -2.6935   -1.1119 C   0  0  0  0  0  0  0  0  0  0  0  0
   20.5885   -4.0557   -1.4451 N   0  0  0  0  0  0  0  0  0  0  0  0
  1  2  1  0
  2  3  1  0
  3  4  1  0
  4  5  1  0
  5  6  1  6
  6  7  1  0
  5  8  1  0
  8  9  1  1
  8 10  1  0
 10 11  1  6
 10 12  1  0
 12 13  1  0
 13 14  1  6
 14 15  1  0
 15 16  1  0
 16 17  1  6
 16 18  1  0
 18 19  1  0
 19 20  1  0
 20 21  1  0
 21 22  1  0
 22 23  1  6
 22 24  1  0
 24 25  2  3
 25 26  1  0
 13  4  1  0
M  RAD  3   3   2  17   3  20   2
M  END
>  <docking_score>  (2) 
-3.6760000000000002

$$$$

     RDKit          3D

 26 26  0  0  0  0  0  0  0  0999 V2000
   14.3554    0.3766   -5.7336 O   0  0  0  0  0  0  0  0  0  0  0  0
   15.0664   -0.5777   -5.0171 C   0  0  0  0  0  0  0  0  0  0  0  0
   16.1291   -1.2320   -5.8431 C   0  0  0  0  0  3  0  0  0  0  0  0
   17.0395   -2.0457   -5.1075 N   0  0  0  0  0  0  0  0  0  0  0  0
   18.0477   -1.3270   -4.3877 C   0  0  2  0  0  0  0  0  0  0  0  0
   18.8910   -0.5710   -5.4081 C   0  0  0  0  0  0  0  0  0  0  0  0
   19.6779   -1.4561   -6.1128 O   0  0  0  0  0  0  0  0  0  0  0  0
   18.9174   -2.2899   -3.6348 C   0  0  1  0  0  0  0  0  0  0  0  0
   19.7003   -1.6104   -2.7004 O   0  0  0  0  0  0  0  0  0  0  0  0
   18.0938   -3.3061   -2.9053 C   0  0  2  0  0  0  0  0  0  0  0  0
   18.8669   -4.1881   -2.1896 O   0  0  0  0  0  0  0  0  0  0  0  0
   17.2754   -3.9692   -3.8464 O   0  0  0  0  0  0  0  0  0  0  0  0
   16.3765   -3.0405   -4.3183 C   0  0  2  0  0  0  0  0  0  0  0  0
   15.2284   -3.6120   -5.0793 C   0  0  0  0  0  0  0  0  0  0  0  0
   14.7581   -4.7792   -4.4628 O   0  0  0  0  0  0  0  0  0  0  0  0
   15.1569   -5.9113   -5.1699 C   0  0  1  0  0  0  0  0  0  0  0  0
   14.3906   -7.0878   -4.5658 C   0  0  0  0  0  2  0  0  0  0  0  0
   14.6486   -5.7460   -6.5876 C   0  0  0  0  0  0  0  0  0  0  0  0
   15.6105   -6.0550   -7.5375 O   0  0  0  0  0  0  0  0  0  0  0  0
   16.8399   -6.3351   -6.9766 C   0  0  0  0  0  3  0  0  0  0  0  0
   17.3185   -7.5140   -7.5247 O   0  0  0  0  0  0  0  0  0  0  0  0
   18.3551   -7.9536   -6.6824 C   0  0  1  0  0  0  0  0  0  0  0  0
   19.2402   -6.8370   -6.3796 N   0  0  0  0  0  0  0  0  0  0  0  0
   17.7505   -8.4854   -5.4263 C   0  0  0  0  0  0  0  0  0  0  0  0
   17.1958   -9.6650   -5.4533 C   0  0  0  0  0  0  0  0  0  0  0  0
   17.1255  -10.4807   -6.5928 N   0  0  0  0  0  0  0  0  0  0  0  0
  1  2  1  0
  2  3  1  0
  3  4  1  0
  4  5  1  0
  5  6  1  6
  6  7  1  0
  5  8  1  0
  8  9  1  1
  8 10  1  0
 10 11  1  6
 10 12  1  0
 12 13  1  0
 13 14  1  6
 14 15  1  0
 15 16  1  0
 16 17  1  1
 16 18  1  0
 18 19  1  0
 19 20  1  0
 20 21  1  0
 21 22  1  0
 22 23  1  1
 22 24  1  0
 24 25  2  3
 25 26  1  0
 13  4  1  0
M  RAD  3   3   2  17   3  20   2
M  END
>  <docking_score>  (3) 
-3.1080000000000001

$$$$
