
     RDKit          3D

 42 44  0  0  0  0  0  0  0  0999 V2000
    7.7849   13.2750   11.5517 C   0  0  0  0  0  0  0  0  0  0  0  0
    8.3056   14.2349   10.5303 C   0  0  1  0  0  0  0  0  0  0  0  0
    9.2857   13.5972    9.5713 C   0  0  0  0  0  0  0  0  0  0  0  0
    7.2515   15.0351    9.8435 C   0  0  0  0  0  0  0  0  0  0  0  0
    6.0110   14.2774    9.5059 C   0  0  0  0  0  0  0  0  0  0  0  0
    5.6909   13.1571   10.4353 C   0  0  0  0  0  0  0  0  0  0  0  0
    4.5206   13.3828   11.3222 C   0  0  1  0  0  0  0  0  0  0  0  0
    4.4645   14.6868   12.0270 C   0  0  0  0  0  0  0  0  0  0  0  0
    3.2190   12.8575   10.8198 C   0  0  0  0  0  3  0  0  0  0  0  0
    3.1302   11.3853   11.1921 C   0  0  0  0  0  0  0  0  0  0  0  0
    4.2931   10.9810   12.0766 C   0  0  0  0  0  0  0  0  0  0  0  0
    4.4241   11.9461   13.2088 C   0  0  2  0  0  0  0  0  0  0  0  0
    5.8105   12.2851   13.6076 C   0  0  0  0  0  0  0  0  0  0  0  0
    3.4434   11.7610   14.3148 C   0  0  0  0  0  0  0  0  0  0  0  0
    3.6649   10.5546   15.1632 C   0  0  2  0  0  0  0  0  0  0  0  0
    2.3632   10.1547   15.6997 N   0  0  0  0  0  1  0  0  0  0  0  0
    4.6410   10.7691   16.2878 C   0  0  0  0  0  0  0  0  0  0  0  0
    4.3020   11.9242   17.1738 C   0  0  0  0  0  0  0  0  0  0  0  0
    3.7418   13.1106   16.4607 C   0  0  1  0  0  0  0  0  0  0  0  0
    2.9222   13.8948   17.2598 O   0  0  0  0  0  0  0  0  0  0  0  0
    4.7641   13.9166   15.7103 C   0  0  0  0  0  0  0  0  0  0  0  0
    4.0837   14.5658   14.5082 C   0  0  0  0  0  0  0  0  0  0  0  0
    5.0894   14.6930   13.3983 C   0  0  2  0  0  0  0  0  0  0  0  0
    5.6634   15.9814   13.5479 O   0  0  0  0  0  0  0  0  0  0  0  0
    6.1893   13.7093   13.5682 C   0  0  2  0  0  0  0  0  0  0  0  0
    7.3955   14.0241   12.7647 C   0  0  0  0  0  0  0  0  0  0  0  0
    8.1412   15.0334   13.1777 C   0  0  0  0  0  0  0  0  0  0  0  0
    9.3590   15.3954   12.4113 C   0  0  0  0  0  0  0  0  0  0  0  0
   10.4934   14.0150   12.2444 S   0  0  0  0  0  0  0  0  0  0  0  0
   11.6679   14.0239   13.6031 C   0  0  0  0  0  0  0  0  0  0  0  0
   12.5647   15.2263   13.4697 C   0  0  2  0  0  0  0  0  0  0  0  0
   12.4625   15.7944   12.0634 C   0  0  0  0  0  0  0  0  0  0  0  0
   14.2787   14.7029   13.7111 S   0  0  0  0  0  0  0  0  0  0  0  0
   14.2892   13.4036   14.9753 C   0  0  0  0  0  0  0  0  0  0  0  0
   14.2258   14.0425   16.3127 C   0  0  0  0  0  0  0  0  0  0  0  0
   14.4743   13.2013   17.5405 C   0  0  0  0  0  0  0  0  0  0  0  0
   13.9566   15.3321   16.4620 C   0  0  0  0  0  0  0  0  0  0  0  0
   13.8924   16.0519   18.1005 S   0  0  0  0  0  0  0  0  0  0  0  0
   12.5427   15.2700   18.9877 C   0  0  0  0  0  0  0  0  0  0  0  0
   12.8707   13.9212   19.4459 C   0  0  0  0  0  0  0  0  0  0  0  0
   13.6775   13.6254   20.4443 C   0  0  0  0  0  0  0  0  0  0  0  0
   14.3399   14.7145   21.2076 C   0  0  0  0  0  0  0  0  0  0  0  0
  1  2  1  0
  2  3  1  6
  2  4  1  0
  4  5  1  0
  5  6  1  0
  7  6  1  6
  7  8  1  0
  7  9  1  0
  9 10  1  0
 10 11  1  0
 12 11  1  1
 12 13  1  0
 12 14  1  0
 14 15  1  0
 15 16  1  1
 15 17  1  0
 17 18  1  0
 18 19  1  0
 19 20  1  1
 19 21  1  0
 21 22  1  0
 22 23  1  0
 23 24  1  1
 23 25  1  0
 25 26  1  0
 26 27  2  3
 27 28  1  0
 28 29  1  0
 29 30  1  0
 30 31  1  0
 31 32  1  6
 31 33  1  0
 33 34  1  0
 34 35  1  0
 35 36  1  0
 35 37  2  3
 37 38  1  0
 38 39  1  0
 39 40  1  0
 40 41  2  3
 41 42  1  0
 26  1  1  0
 23  8  1  0
 25 13  1  6
M  CHG  1  16   1
M  RAD  2   9   2  16   2
M  END
>  <docking_score>  (1) 
5.2069999999999999

$$$$
