
     RDKit          3D

 20 22  0  0  0  0  0  0  0  0999 V2000
   13.3422   -0.4481   -4.5016 C   0  0  0  0  0  0  0  0  0  0  0  0
   14.5842   -0.9107   -3.7991 O   0  0  0  0  0  0  0  0  0  0  0  0
   15.1943   -2.2357   -4.1490 C   0  0  0  0  0  0  0  0  0  0  0  0
   16.1737   -2.7842   -3.1542 C   0  0  0  0  0  0  0  0  0  0  0  0
   15.5637   -1.4593   -2.8042 C   0  0  0  0  0  0  0  0  0  0  0  0
   14.5716   -0.8222   -3.7315 C   0  0  0  0  0  0  0  0  0  0  0  0
   14.1896   -1.5098   -5.0086 C   0  0  0  0  0  0  0  0  0  0  0  0
   14.7442   -2.8368   -5.4475 C   0  0  0  0  0  0  0  0  0  0  0  0
   15.1625   -4.1349   -6.0718 C   0  0  0  0  0  0  0  0  0  0  0  0
   16.1341   -5.1526   -5.5518 C   0  0  0  0  0  0  0  0  0  0  0  0
   16.9054   -6.4378   -5.6098 C   0  0  0  0  0  0  0  0  0  0  0  0
   17.8849   -6.9864   -4.6149 C   0  0  0  0  0  0  0  0  0  0  0  0
   18.3349   -6.3853   -3.3165 C   0  0  0  0  0  0  0  0  0  0  0  0
   17.9167   -5.0871   -2.6921 C   0  0  0  0  0  0  0  0  0  0  0  0
   16.9451   -4.0694   -3.2121 C   0  0  0  0  0  0  0  0  0  0  0  0
   16.1518   -4.0986   -4.4848 C   0  0  0  0  0  0  0  0  0  0  0  0
   15.2579   -2.9176   -4.7217 C   0  0  0  0  0  0  0  0  0  0  0  0
   15.3891   -2.1191   -5.9848 C   0  0  0  0  0  0  0  0  0  0  0  0
   16.7487   -1.7656   -6.5107 C   0  0  0  0  0  0  0  0  0  0  0  0
   17.6201   -0.8079   -5.7535 O   0  0  0  0  0  0  0  0  0  0  0  0
  1  2  1  0
  2  3  1  0
  3  4  2  0
  4  5  1  0
  5  6  2  0
  6  7  1  0
  7  8  2  0
  8  9  1  0
  9 10  1  0
 10 11  1  0
 11 12  1  0
 12 13  1  0
 13 14  1  0
 14 15  1  0
 10 16  2  0
 16 17  1  0
 17 18  1  0
 18 19  1  0
 19 20  2  0
  8  3  1  0
 15  4  1  0
 16 15  1  0
M  END
>  <docking_score>  (1) 
-5.6109999999999998

$$$$

     RDKit          3D

 20 22  0  0  0  0  0  0  0  0999 V2000
   19.0985   -6.7121   -3.6865 C   0  0  0  0  0  0  0  0  0  0  0  0
   17.8745   -6.0237   -3.1592 O   0  0  0  0  0  0  0  0  0  0  0  0
   17.2066   -4.9544   -3.9719 C   0  0  0  0  0  0  0  0  0  0  0  0
   16.5463   -3.8587   -3.1889 C   0  0  0  0  0  0  0  0  0  0  0  0
   17.2142   -4.9279   -2.3760 C   0  0  0  0  0  0  0  0  0  0  0  0
   17.9043   -6.0698   -3.0614 C   0  0  0  0  0  0  0  0  0  0  0  0
   17.9265   -6.1426   -4.5594 C   0  0  0  0  0  0  0  0  0  0  0  0
   17.2874   -5.1224   -5.4603 C   0  0  0  0  0  0  0  0  0  0  0  0
   16.7278   -4.2361   -6.5332 C   0  0  0  0  0  0  0  0  0  0  0  0
   15.9492   -2.9629   -6.3828 C   0  0  0  0  0  0  0  0  0  0  0  0
   15.2065   -1.7643   -6.8948 C   0  0  0  0  0  0  0  0  0  0  0  0
   14.5461   -0.6685   -6.1117 C   0  0  0  0  0  0  0  0  0  0  0  0
   14.4654   -0.5006   -4.6234 C   0  0  0  0  0  0  0  0  0  0  0  0
   15.0250   -1.3869   -3.5504 C   0  0  0  0  0  0  0  0  0  0  0  0
   15.8036   -2.6601   -3.7008 C   0  0  0  0  0  0  0  0  0  0  0  0
   16.2149   -3.3614   -4.9614 C   0  0  0  0  0  0  0  0  0  0  0  0
   16.9951   -4.6291   -4.7760 C   0  0  0  0  0  0  0  0  0  0  0  0
   16.4919   -5.9127   -5.3670 C   0  0  0  0  0  0  0  0  0  0  0  0
   15.0293   -6.2413   -5.3117 C   0  0  0  0  0  0  0  0  0  0  0  0
   14.5171   -7.2131   -4.2904 O   0  0  0  0  0  0  0  0  0  0  0  0
  1  2  1  0
  2  3  1  0
  3  4  2  0
  4  5  1  0
  5  6  2  0
  6  7  1  0
  7  8  2  0
  8  9  1  0
  9 10  1  0
 10 11  1  0
 11 12  1  0
 12 13  1  0
 13 14  1  0
 14 15  1  0
 10 16  2  0
 16 17  1  0
 17 18  1  0
 18 19  1  0
 19 20  2  0
  8  3  1  0
 15  4  1  0
 16 15  1  0
M  END
>  <docking_score>  (2) 
-5.476

$$$$

     RDKit          3D

 20 22  0  0  0  0  0  0  0  0999 V2000
   15.9030   -1.3742   -1.9470 C   0  0  0  0  0  0  0  0  0  0  0  0
   15.8012   -2.0982   -3.2568 O   0  0  0  0  0  0  0  0  0  0  0  0
   16.5159   -3.4028   -3.4502 C   0  0  0  0  0  0  0  0  0  0  0  0
   16.0070   -4.2644   -4.5675 C   0  0  0  0  0  0  0  0  0  0  0  0
   15.2922   -2.9599   -4.3743 C   0  0  0  0  0  0  0  0  0  0  0  0
   15.7221   -2.0235   -3.2842 C   0  0  0  0  0  0  0  0  0  0  0  0
   16.8668   -2.3915   -2.3874 C   0  0  0  0  0  0  0  0  0  0  0  0
   17.6451   -3.6731   -2.5005 C   0  0  0  0  0  0  0  0  0  0  0  0
   18.5442   -4.8718   -2.4337 C   0  0  0  0  0  0  0  0  0  0  0  0
   18.5363   -6.0963   -3.3000 C   0  0  0  0  0  0  0  0  0  0  0  0
   19.0310   -7.4412   -3.7437 C   0  0  0  0  0  0  0  0  0  0  0  0
   18.5220   -8.3028   -4.8611 C   0  0  0  0  0  0  0  0  0  0  0  0
   17.3929   -8.0325   -5.8107 C   0  0  0  0  0  0  0  0  0  0  0  0
   16.4937   -6.8337   -5.8776 C   0  0  0  0  0  0  0  0  0  0  0  0
   16.5016   -5.6092   -5.0112 C   0  0  0  0  0  0  0  0  0  0  0  0
   17.4107   -5.2811   -3.8641 C   0  0  0  0  0  0  0  0  0  0  0  0
   17.1611   -3.9634   -3.1922 C   0  0  0  0  0  0  0  0  0  0  0  0
   18.2825   -2.9805   -3.0288 C   0  0  0  0  0  0  0  0  0  0  0  0
   19.1550   -2.6368   -4.1995 C   0  0  0  0  0  0  0  0  0  0  0  0
   18.8622   -1.4159   -5.0202 O   0  0  0  0  0  0  0  0  0  0  0  0
  1  2  1  0
  2  3  1  0
  3  4  2  0
  4  5  1  0
  5  6  2  0
  6  7  1  0
  7  8  2  0
  8  9  1  0
  9 10  1  0
 10 11  1  0
 11 12  1  0
 12 13  1  0
 13 14  1  0
 14 15  1  0
 10 16  2  0
 16 17  1  0
 17 18  1  0
 18 19  1  0
 19 20  2  0
  8  3  1  0
 15  4  1  0
 16 15  1  0
M  END
>  <docking_score>  (3) 
-5.1989999999999998

$$$$
