
     RDKit          3D

 35 34  0  0  0  0  0  0  0  0999 V2000
   15.2101   -1.6532   -4.3260 O   0  0  0  0  0  0  0  0  0  0  0  0
   14.6161   -0.5490   -4.2548 C   0  0  0  0  0  0  0  0  0  0  0  0
   13.8360   -0.2913   -3.1423 O   0  0  0  0  0  0  0  0  0  0  0  0
   14.7604    0.4293   -5.3373 C   0  0  0  0  0  0  0  0  0  0  0  0
   16.1287    1.0397   -5.3994 C   0  0  0  0  0  0  0  0  0  0  0  0
   17.2180    0.0731   -5.5480 C   0  0  0  0  0  0  0  0  0  0  0  0
   18.4615    0.3323   -5.8612 C   0  0  0  0  0  0  0  0  0  0  0  0
   19.4023   -0.7728   -5.9611 C   0  0  0  0  0  0  0  0  0  0  0  0
   19.6572   -1.7980   -7.7692 I   0  0  0  0  0  0  0  0  0  0  0  0
   20.0819   -1.1020   -4.8827 C   0  0  0  0  0  0  0  0  0  0  0  0
   19.9236   -0.4315   -3.6769 O   0  0  0  0  0  0  0  0  0  0  0  0
   20.9724   -0.1599   -2.7877 C   0  0  0  0  0  0  0  0  0  0  0  0
   21.0520   -2.2378   -4.9767 C   0  0  0  0  0  0  0  0  0  0  0  0
   20.8914   -3.0957   -3.7681 C   0  0  0  0  0  0  0  0  0  0  0  0
   19.7074   -3.6212   -3.5032 C   0  0  0  0  0  0  0  0  0  0  0  0
   18.4988   -3.4244   -4.3262 C   0  0  0  0  0  0  0  0  0  0  0  0
   18.7626   -2.8119   -5.6329 C   0  0  0  0  0  0  0  0  0  0  0  0
   18.1019   -3.0355   -6.7316 C   0  0  0  0  0  0  0  0  0  0  0  0
   16.9714   -3.9512   -6.8326 C   0  0  0  0  0  0  0  0  0  0  0  0
   15.8909   -3.6965   -7.5193 C   0  0  0  0  0  0  0  0  0  0  0  0
   14.7998   -4.6855   -7.5620 C   0  0  2  0  0  0  0  0  0  0  0  0
   14.0493   -4.4707   -8.7261 O   0  0  0  0  0  0  0  0  0  0  0  0
   13.6143   -4.3859   -6.0447 Br  0  0  0  0  0  0  0  0  0  0  0  0
   15.3956   -6.3924   -7.6021 S   0  0  0  0  0  0  0  0  0  0  0  0
   16.3731   -7.0070   -6.4248 C   0  0  0  0  0  0  0  0  0  0  0  0
   16.7925   -8.3608   -6.5398 N   0  0  0  0  0  3  0  0  0  0  0  0
   17.1616   -8.8552   -7.6956 C   0  0  0  0  0  0  0  0  0  0  0  0
   17.6665  -10.5682   -7.7076 S   0  0  0  0  0  0  0  0  0  0  0  0
   19.3671  -10.6549   -8.2302 C   0  0  0  0  0  0  0  0  0  0  0  0
   20.2683   -9.7157   -8.0745 C   0  0  0  0  0  0  0  0  0  0  0  0
   19.9925   -8.4111   -7.4228 C   0  0  2  0  0  0  0  0  0  0  0  0
   18.7406   -7.2721   -8.7193 I   0  0  0  0  0  0  0  0  0  0  0  0
   21.3150   -7.6772   -7.2998 C   0  0  0  0  0  0  0  0  0  0  0  0
   19.3745   -8.5915   -6.0521 C   0  0  0  0  0  0  0  0  0  0  0  0
   19.9626   -7.2345   -4.8314 Br  0  0  0  0  0  0  0  0  0  0  0  0
  1  2  2  0
  2  3  1  0
  2  4  1  0
  4  5  1  0
  5  6  1  0
  6  7  2  3
  7  8  1  0
  8  9  1  0
  8 10  2  3
 10 11  1  0
 11 12  1  0
 10 13  1  0
 13 14  1  0
 14 15  2  3
 15 16  1  0
 16 17  1  0
 17 18  2  3
 18 19  1  0
 19 20  2  3
 20 21  1  0
 21 22  1  6
 21 23  1  0
 21 24  1  0
 24 25  2  3
 25 26  1  0
 26 27  2  3
 27 28  1  0
 28 29  1  0
 29 30  2  3
 30 31  1  0
 31 32  1  0
 31 33  1  1
 31 34  1  0
 34 35  1  0
M  CHG  1  26   1
M  RAD  1  26   2
M  END
>  <docking_score>  (1) 
1.3500000000000001

$$$$

     RDKit          3D

 35 34  0  0  0  0  0  0  0  0999 V2000
   17.2594   -2.4551   -3.0657 O   0  0  0  0  0  0  0  0  0  0  0  0
   17.7216   -2.9318   -1.9997 C   0  0  0  0  0  0  0  0  0  0  0  0
   16.9966   -3.9128   -1.3481 O   0  0  0  0  0  0  0  0  0  0  0  0
   19.0017   -2.4449   -1.4764 C   0  0  0  0  0  0  0  0  0  0  0  0
   19.5209   -1.2469   -2.2140 C   0  0  0  0  0  0  0  0  0  0  0  0
   19.5871   -1.4110   -3.6672 C   0  0  0  0  0  0  0  0  0  0  0  0
   18.5899   -1.3470   -4.5116 C   0  0  0  0  0  0  0  0  0  0  0  0
   18.8598   -1.5385   -5.9282 C   0  0  0  0  0  0  0  0  0  0  0  0
   20.8262   -1.5498   -6.6484 I   0  0  0  0  0  0  0  0  0  0  0  0
   17.8319   -1.7031   -6.7340 C   0  0  0  0  0  0  0  0  0  0  0  0
   16.5226   -1.6979   -6.2711 O   0  0  0  0  0  0  0  0  0  0  0  0
   15.9092   -2.7903   -5.6428 C   0  0  0  0  0  0  0  0  0  0  0  0
   18.1008   -1.9007   -8.1929 C   0  0  0  0  0  0  0  0  0  0  0  0
   19.4943   -2.4065   -8.3508 C   0  0  0  0  0  0  0  0  0  0  0  0
   19.6898   -3.6905   -8.5986 C   0  0  0  0  0  0  0  0  0  0  0  0
   18.6150   -4.6919   -8.7357 C   0  0  0  0  0  0  0  0  0  0  0  0
   19.0807   -6.0801   -8.6445 C   0  0  0  0  0  0  0  0  0  0  0  0
   18.7345   -6.9466   -7.7373 C   0  0  0  0  0  0  0  0  0  0  0  0
   17.8085   -6.6618   -6.6472 C   0  0  0  0  0  0  0  0  0  0  0  0
   16.5306   -6.4560   -6.8163 C   0  0  0  0  0  0  0  0  0  0  0  0
   15.6733   -6.1750   -5.6516 C   0  0  2  0  0  0  0  0  0  0  0  0
   16.4656   -5.6141   -4.6405 O   0  0  0  0  0  0  0  0  0  0  0  0
   14.9647   -7.8562   -4.9670 Br  0  0  0  0  0  0  0  0  0  0  0  0
   14.3451   -5.0042   -6.0189 S   0  0  0  0  0  0  0  0  0  0  0  0
   12.9160   -5.0142   -5.1962 C   0  0  0  0  0  0  0  0  0  0  0  0
   11.9288   -4.0555   -5.5542 N   0  0  0  0  0  3  0  0  0  0  0  0
   11.9019   -2.8739   -4.9889 C   0  0  0  0  0  0  0  0  0  0  0  0
   10.6128   -1.7603   -5.5254 S   0  0  0  0  0  0  0  0  0  0  0  0
   10.0778   -0.7958   -4.1268 C   0  0  0  0  0  0  0  0  0  0  0  0
    8.8783   -0.2972   -3.9502 C   0  0  0  0  0  0  0  0  0  0  0  0
    7.7652   -0.4702   -4.9165 C   0  0  2  0  0  0  0  0  0  0  0  0
    6.6814    1.3630   -5.0171 I   0  0  0  0  0  0  0  0  0  0  0  0
    6.8326   -1.5246   -4.3498 C   0  0  0  0  0  0  0  0  0  0  0  0
    8.2693   -0.9062   -6.2763 C   0  0  0  0  0  0  0  0  0  0  0  0
    7.4678    0.1184   -7.6853 Br  0  0  0  0  0  0  0  0  0  0  0  0
  1  2  2  0
  2  3  1  0
  2  4  1  0
  4  5  1  0
  5  6  1  0
  6  7  2  3
  7  8  1  0
  8  9  1  0
  8 10  2  3
 10 11  1  0
 11 12  1  0
 10 13  1  0
 13 14  1  0
 14 15  2  3
 15 16  1  0
 16 17  1  0
 17 18  2  3
 18 19  1  0
 19 20  2  3
 20 21  1  0
 21 22  1  1
 21 23  1  0
 21 24  1  0
 24 25  2  3
 25 26  1  0
 26 27  2  3
 27 28  1  0
 28 29  1  0
 29 30  2  3
 30 31  1  0
 31 32  1  0
 31 33  1  1
 31 34  1  0
 34 35  1  0
M  CHG  1  26   1
M  RAD  1  26   2
M  END
>  <docking_score>  (2) 
2.992

$$$$
