
     RDKit          3D

 23 25  0  0  0  0  0  0  0  0999 V2000
   20.6261   -2.2824   -3.5165 C   0  0  0  0  0  0  0  0  0  0  0  0
   19.4790   -3.0669   -4.0651 C   0  0  1  0  0  0  0  0  0  0  0  0
   19.1083   -4.2511   -3.2168 C   0  0  0  0  0  0  0  0  0  0  0  0
   17.9182   -4.1591   -2.3868 C   0  0  2  0  0  0  0  0  0  0  0  0
   17.2395   -5.3789   -2.3695 O   0  0  0  0  0  0  0  0  0  0  0  0
   16.9804   -3.0486   -2.5087 C   0  0  2  0  0  0  0  0  0  0  0  0
   15.8841   -3.0845   -3.1835 O   0  0  0  0  0  0  0  0  0  0  0  0
   17.7508   -1.7995   -2.9756 C   0  0  1  0  0  0  0  0  0  0  0  0
   18.7894   -1.5998   -2.0781 O   0  0  0  0  0  0  0  0  0  0  0  0
   18.2435   -2.3478   -4.3011 C   0  0  1  0  0  0  0  0  0  0  0  0
   18.0865   -1.4821   -5.4026 N   0  0  0  0  0  0  0  0  0  0  0  0
   16.7274   -1.8446   -5.7842 C   0  0  1  0  0  0  0  0  0  0  0  0
   15.7181   -0.7916   -5.5509 C   0  0  0  0  0  0  0  0  0  0  0  0
   14.6996   -1.4418   -4.5953 C   0  0  0  0  0  3  0  0  0  0  0  0
   13.4954   -0.7597   -4.8281 O   0  0  0  0  0  0  0  0  0  0  0  0
   14.5058   -2.8333   -4.9207 N   0  0  0  0  0  0  0  0  0  0  0  0
   15.4504   -3.7030   -4.2207 C   0  0  1  0  0  0  0  0  0  0  0  0
   16.3343   -4.2955   -5.2510 C   0  0  1  0  0  0  0  0  0  0  0  0
   16.1898   -5.7060   -5.2676 O   0  0  0  0  0  0  0  0  0  0  0  0
   15.9488   -3.9049   -6.6776 C   0  0  2  0  0  0  0  0  0  0  0  0
   16.2783   -4.9109   -7.5776 O   0  0  0  0  0  0  0  0  0  0  0  0
   16.6332   -2.5843   -7.0671 C   0  0  1  0  0  0  0  0  0  0  0  0
   15.6967   -1.9057   -7.8811 O   0  0  0  0  0  0  0  0  0  0  0  0
  2  1  1  1
  2  3  1  0
  3  4  1  0
  4  5  1  6
  4  6  1  0
  6  7  1  6
  6  8  1  0
  8  9  1  1
  8 10  1  0
 10 11  1  6
 11 12  1  0
 12 13  1  6
 13 14  1  0
 14 15  1  0
 14 16  1  0
 17 16  1  6
 17 18  1  0
 18 19  1  6
 18 20  1  0
 20 21  1  6
 20 22  1  0
 22 23  1  6
 10  2  1  0
 17  7  1  0
 22 12  1  0
M  RAD  1  14   2
M  END
>  <docking_score>  (1) 
-6.1719999999999997

$$$$

     RDKit          3D

 23 25  0  0  0  0  0  0  0  0999 V2000
   17.2502   -2.1855   -8.5143 C   0  0  0  0  0  0  0  0  0  0  0  0
   17.4370   -2.6086   -7.0937 C   0  0  1  0  0  0  0  0  0  0  0  0
   16.9950   -1.5704   -6.1007 C   0  0  0  0  0  0  0  0  0  0  0  0
   15.7342   -1.7734   -5.4058 C   0  0  2  0  0  0  0  0  0  0  0  0
   15.8347   -1.3522   -4.0787 O   0  0  0  0  0  0  0  0  0  0  0  0
   15.0027   -3.0323   -5.4935 C   0  0  2  0  0  0  0  0  0  0  0  0
   15.0508   -3.9719   -4.6140 O   0  0  0  0  0  0  0  0  0  0  0  0
   15.2991   -3.6827   -6.8576 C   0  0  1  0  0  0  0  0  0  0  0  0
   14.9856   -2.7482   -7.8336 O   0  0  0  0  0  0  0  0  0  0  0  0
   16.7974   -3.8430   -6.6856 C   0  0  1  0  0  0  0  0  0  0  0  0
   17.3110   -5.1030   -7.0543 N   0  0  0  0  0  0  0  0  0  0  0  0
   17.1143   -5.8062   -5.7929 C   0  0  1  0  0  0  0  0  0  0  0  0
   16.0818   -6.8620   -5.8283 C   0  0  0  0  0  0  0  0  0  0  0  0
   15.0618   -6.4366   -4.7551 C   0  0  0  0  0  3  0  0  0  0  0  0
   14.4473   -7.6296   -4.3440 O   0  0  0  0  0  0  0  0  0  0  0  0
   15.7271   -5.8509   -3.6176 N   0  0  0  0  0  0  0  0  0  0  0  0
   15.9080   -4.4071   -3.7642 C   0  0  1  0  0  0  0  0  0  0  0  0
   17.3653   -4.1650   -3.8723 C   0  0  1  0  0  0  0  0  0  0  0  0
   17.8100   -3.3637   -2.7902 O   0  0  0  0  0  0  0  0  0  0  0  0
   18.2037   -5.4331   -3.7137 C   0  0  2  0  0  0  0  0  0  0  0  0
   19.4428   -5.1464   -3.1543 O   0  0  0  0  0  0  0  0  0  0  0  0
   18.3719   -6.1288   -5.0745 C   0  0  1  0  0  0  0  0  0  0  0  0
   18.3548   -7.5139   -4.7890 O   0  0  0  0  0  0  0  0  0  0  0  0
  2  1  1  6
  2  3  1  0
  3  4  1  0
  4  5  1  1
  4  6  1  0
  6  7  1  1
  6  8  1  0
  8  9  1  6
  8 10  1  0
 10 11  1  6
 11 12  1  0
 12 13  1  6
 13 14  1  0
 14 15  1  0
 14 16  1  0
 17 16  1  6
 17 18  1  0
 18 19  1  1
 18 20  1  0
 20 21  1  6
 20 22  1  0
 22 23  1  1
 10  2  1  0
 17  7  1  0
 22 12  1  0
M  RAD  1  14   2
M  END
>  <docking_score>  (2) 
-6.0519999999999996

$$$$

     RDKit          3D

 23 25  0  0  0  0  0  0  0  0999 V2000
   16.0810   -1.5441   -1.9733 C   0  0  0  0  0  0  0  0  0  0  0  0
   16.9044   -2.1213   -3.0782 C   0  0  1  0  0  0  0  0  0  0  0  0
   18.3686   -2.2037   -2.7484 C   0  0  0  0  0  0  0  0  0  0  0  0
   18.9274   -3.5029   -2.4113 C   0  0  2  0  0  0  0  0  0  0  0  0
   20.2091   -3.6373   -2.9479 O   0  0  0  0  0  0  0  0  0  0  0  0
   18.1650   -4.7347   -2.5816 C   0  0  2  0  0  0  0  0  0  0  0  0
   18.2642   -5.5252   -3.5935 O   0  0  0  0  0  0  0  0  0  0  0  0
   16.6680   -4.4180   -2.4080 C   0  0  1  0  0  0  0  0  0  0  0  0
   16.5208   -3.7978   -1.1761 O   0  0  0  0  0  0  0  0  0  0  0  0
   16.5328   -3.4373   -3.5571 C   0  0  1  0  0  0  0  0  0  0  0  0
   15.4095   -3.6367   -4.3853 N   0  0  0  0  0  0  0  0  0  0  0  0
   15.9797   -4.6072   -5.3112 C   0  0  1  0  0  0  0  0  0  0  0  0
   15.4177   -5.9689   -5.2029 C   0  0  0  0  0  0  0  0  0  0  0  0
   16.6315   -6.8598   -4.8774 C   0  0  0  0  0  3  0  0  0  0  0  0
   16.2849   -8.1345   -5.3513 O   0  0  0  0  0  0  0  0  0  0  0  0
   17.8031   -6.4117   -5.5891 N   0  0  0  0  0  0  0  0  0  0  0  0
   18.5597   -5.4115   -4.8369 C   0  0  1  0  0  0  0  0  0  0  0  0
   18.4595   -4.1402   -5.5903 C   0  0  1  0  0  0  0  0  0  0  0  0
   19.7460   -3.7182   -6.0117 O   0  0  0  0  0  0  0  0  0  0  0  0
   17.7049   -4.2772   -6.9125 C   0  0  2  0  0  0  0  0  0  0  0  0
   18.1766   -3.3704   -7.8536 O   0  0  0  0  0  0  0  0  0  0  0  0
   16.1969   -4.0838   -6.6826 C   0  0  1  0  0  0  0  0  0  0  0  0
   15.5661   -4.9743   -7.5821 O   0  0  0  0  0  0  0  0  0  0  0  0
  2  1  1  1
  2  3  1  0
  3  4  1  0
  4  5  1  6
  4  6  1  0
  6  7  1  6
  6  8  1  0
  8  9  1  1
  8 10  1  0
 10 11  1  1
 11 12  1  0
 12 13  1  6
 13 14  1  0
 14 15  1  0
 14 16  1  0
 17 16  1  6
 17 18  1  0
 18 19  1  6
 18 20  1  0
 20 21  1  6
 20 22  1  0
 22 23  1  6
 10  2  1  0
 17  7  1  0
 22 12  1  0
M  RAD  1  14   2
M  END
>  <docking_score>  (3) 
-5.6050000000000004

$$$$
