
     RDKit          3D

 32 33  0  0  0  0  0  0  0  0999 V2000
   16.6986   -3.2376   -6.3501 C   0  0  0  0  0  0  0  0  0  0  0  0
   16.5300   -1.7436   -6.2749 C   0  0  1  0  0  0  0  0  0  0  0  0
   15.1456   -1.3937   -6.7605 C   0  0  0  0  0  0  0  0  0  0  0  0
   14.4643   -0.4683   -5.7817 C   0  0  2  0  0  0  0  0  0  0  0  0
   15.2515    0.6547   -5.5544 O   0  0  0  0  0  0  0  0  0  0  0  0
   14.2253   -1.1628   -4.4647 C   0  0  2  0  0  0  0  0  0  0  0  0
   13.8874   -0.2331   -3.5081 O   0  0  0  0  0  0  0  0  0  0  0  0
   15.4900   -1.8662   -4.0559 C   0  0  1  0  0  0  0  0  0  0  0  0
   15.3972   -3.2282   -4.3308 O   0  0  0  0  0  0  0  0  0  0  0  0
   16.6584   -1.3053   -4.8376 C   0  0  1  0  0  0  0  0  0  0  0  0
   17.9135   -1.8388   -4.3296 N   0  0  0  0  0  0  0  0  0  0  0  0
   18.0626   -1.4402   -2.9586 C   0  0  0  0  0  3  0  0  0  0  0  0
   19.4757   -1.6188   -2.5062 C   0  0  0  0  0  0  0  0  0  0  0  0
   19.6138   -2.9479   -1.8091 C   0  0  0  0  0  0  0  0  0  0  0  0
   18.3495   -3.5491   -1.7698 O   0  0  0  0  0  0  0  0  0  0  0  0
   20.0383   -2.8086   -0.4879 O   0  0  0  0  0  0  0  0  0  0  0  0
   20.5327   -3.7484   -2.4842 O   0  0  0  0  0  0  0  0  0  0  0  0
   19.9449   -4.5050   -3.4762 C   0  0  1  0  0  0  0  0  0  0  0  0
   20.4691   -4.0946   -4.6977 O   0  0  0  0  0  0  0  0  0  0  0  0
   20.1164   -5.9699   -3.2361 C   0  0  2  0  0  0  0  0  0  0  0  0
   21.3557   -6.4397   -3.6601 O   0  0  0  0  0  0  0  0  0  0  0  0
   18.9947   -6.7782   -3.8527 C   0  0  2  0  0  0  0  0  0  0  0  0
   19.2288   -6.8228   -5.2272 O   0  0  0  0  0  0  0  0  0  0  0  0
   17.6959   -6.1344   -3.6403 C   0  0  0  0  0  0  0  0  0  0  0  0
   16.6136   -6.2975   -4.3418 C   0  0  0  0  0  0  0  0  0  0  0  0
   16.4355   -7.1001   -5.4313 O   0  0  0  0  0  0  0  0  0  0  0  0
   16.9734   -6.8601   -6.7141 C   0  0  2  0  0  0  0  0  0  0  0  0
   16.0130   -6.4204   -7.6210 O   0  0  0  0  0  0  0  0  0  0  0  0
   17.6202   -8.1329   -7.2147 C   0  0  0  0  0  3  0  0  0  0  0  0
   18.3456   -8.8274   -6.0861 C   0  0  0  0  0  3  0  0  0  0  0  0
   19.5886   -8.0918   -5.6683 C   0  0  1  0  0  0  0  0  0  0  0  0
   20.4246   -7.8899   -6.9394 C   0  0  0  0  0  2  0  0  0  0  0  0
  2  1  1  1
  2  3  1  0
  3  4  1  0
  4  5  1  1
  4  6  1  0
  6  7  1  1
  6  8  1  0
  8  9  1  6
  8 10  1  0
 10 11  1  1
 11 12  1  0
 12 13  1  0
 13 14  1  0
 14 15  1  0
 14 16  1  0
 14 17  1  0
 17 18  1  0
 18 19  1  6
 18 20  1  0
 20 21  1  6
 20 22  1  0
 22 23  1  6
 22 24  1  0
 24 25  2  3
 25 26  1  0
 26 27  1  0
 27 28  1  6
 27 29  1  0
 29 30  1  0
 30 31  1  0
 31 32  1  6
 10  2  1  0
 31 23  1  0
M  RAD  4  12   2  29   2  30   2  32   3
M  END
>  <docking_score>  (1) 
-5.0549999999999997

$$$$

     RDKit          3D

 32 33  0  0  0  0  0  0  0  0999 V2000
    3.9340   10.7824    6.6925 C   0  0  0  0  0  0  0  0  0  0  0  0
    5.0476   11.6860    7.1504 C   0  0  1  0  0  0  0  0  0  0  0  0
    5.2293   12.7776    6.1256 C   0  0  0  0  0  0  0  0  0  0  0  0
    5.2676   14.1283    6.7984 C   0  0  2  0  0  0  0  0  0  0  0  0
    6.2503   14.1478    7.7813 O   0  0  0  0  0  0  0  0  0  0  0  0
    3.9399   14.4456    7.4393 C   0  0  2  0  0  0  0  0  0  0  0  0
    4.0828   15.5194    8.2879 O   0  0  0  0  0  0  0  0  0  0  0  0
    3.4849   13.2448    8.2220 C   0  0  1  0  0  0  0  0  0  0  0  0
    2.5166   12.5413    7.5103 O   0  0  0  0  0  0  0  0  0  0  0  0
    4.6591   12.3205    8.4621 C   0  0  1  0  0  0  0  0  0  0  0  0
    4.2844   11.2477    9.3714 N   0  0  0  0  0  0  0  0  0  0  0  0
    5.2925   11.1306   10.3867 C   0  0  0  0  0  3  0  0  0  0  0  0
    4.9388   11.9561   11.5812 C   0  0  0  0  0  0  0  0  0  0  0  0
    6.1570   12.1225   12.4530 C   0  0  0  0  0  0  0  0  0  0  0  0
    7.2548   11.5848   11.7693 O   0  0  0  0  0  0  0  0  0  0  0  0
    6.0450   11.4232   13.6545 O   0  0  0  0  0  0  0  0  0  0  0  0
    6.3551   13.4702   12.7452 O   0  0  0  0  0  0  0  0  0  0  0  0
    7.6360   13.8906   12.4545 C   0  0  1  0  0  0  0  0  0  0  0  0
    7.5466   15.0874   11.7509 O   0  0  0  0  0  0  0  0  0  0  0  0
    8.4784   14.0038   13.6836 C   0  0  2  0  0  0  0  0  0  0  0  0
    8.3473   15.2396   14.3096 O   0  0  0  0  0  0  0  0  0  0  0  0
    9.9333   13.6950   13.4012 C   0  0  2  0  0  0  0  0  0  0  0  0
   10.6807   14.7743   13.8729 O   0  0  0  0  0  0  0  0  0  0  0  0
   10.1819   13.5728   11.9626 C   0  0  0  0  0  0  0  0  0  0  0  0
   11.3162   13.7224   11.3453 C   0  0  0  0  0  0  0  0  0  0  0  0
   12.5309   14.0257   11.8887 O   0  0  0  0  0  0  0  0  0  0  0  0
   12.8954   15.2848   12.4123 C   0  0  2  0  0  0  0  0  0  0  0  0
   13.7607   15.9810   11.5727 O   0  0  0  0  0  0  0  0  0  0  0  0
   13.5355   15.0796   13.7677 C   0  0  0  0  0  3  0  0  0  0  0  0
   12.8032   14.0016   14.5318 C   0  0  0  0  0  3  0  0  0  0  0  0
   11.4432   14.4503   14.9900 C   0  0  1  0  0  0  0  0  0  0  0  0
   11.6534   15.7568   15.7674 C   0  0  0  0  0  2  0  0  0  0  0  0
  2  1  1  6
  2  3  1  0
  3  4  1  0
  4  5  1  1
  4  6  1  0
  6  7  1  1
  6  8  1  0
  8  9  1  6
  8 10  1  0
 10 11  1  1
 11 12  1  0
 12 13  1  0
 13 14  1  0
 14 15  1  0
 14 16  1  0
 14 17  1  0
 17 18  1  0
 18 19  1  1
 18 20  1  0
 20 21  1  6
 20 22  1  0
 22 23  1  6
 22 24  1  0
 24 25  2  3
 25 26  1  0
 26 27  1  0
 27 28  1  6
 27 29  1  0
 29 30  1  0
 30 31  1  0
 31 32  1  1
 10  2  1  0
 31 23  1  0
M  RAD  4  12   2  29   2  30   2  32   3
M  END
>  <docking_score>  (2) 
-2.9140000000000001

$$$$
