
     RDKit          3D

 39 40  0  0  0  0  0  0  0  0999 V2000
   19.2551    4.4430   -6.5284 C   0  0  0  0  0  0  0  0  0  0  0  0
   20.7615    4.5351   -6.3759 C   0  0  0  0  0  0  0  0  0  0  0  0
   21.0706    5.5502   -5.3055 C   0  0  0  0  0  0  0  0  0  0  0  0
   21.3793    3.2277   -5.9716 C   0  0  0  0  0  0  0  0  0  0  0  0
   20.4447    2.3514   -5.1757 C   0  0  0  0  0  0  0  0  0  0  0  0
   21.2097    1.0843   -4.8345 C   0  0  0  0  0  0  0  0  0  0  0  0
   20.4173   -0.1310   -5.2645 C   0  0  1  0  0  0  0  0  0  0  0  0
   19.2826   -0.4191   -4.3055 C   0  0  0  0  0  0  0  0  0  0  0  0
   19.9184    0.1327   -6.6658 C   0  0  0  0  0  3  0  0  0  0  0  0
   20.9960   -0.1111   -7.7005 C   0  0  0  0  0  0  0  0  0  0  0  0
   20.5106   -1.1697   -8.6546 C   0  0  0  0  0  0  0  0  0  0  0  0
   20.5360   -2.5167   -7.9947 C   0  0  2  0  0  0  0  0  0  0  0  0
   21.3825   -3.5254   -8.7307 C   0  0  0  0  0  0  0  0  0  0  0  0
   19.1218   -3.0682   -7.9271 C   0  0  0  0  0  3  0  0  0  0  0  0
   18.1734   -1.9077   -7.9984 C   0  0  0  0  0  0  0  0  0  0  0  0
   17.1669   -1.9320   -6.8667 C   0  0  0  0  0  0  0  0  0  0  0  0
   15.9143   -1.3479   -7.2606 N   0  0  0  0  0  2  0  0  0  0  0  0
   15.0971   -1.1530   -6.0770 C   0  0  0  0  0  0  0  0  0  0  0  0
   15.1021   -2.3771   -5.1981 C   0  0  0  0  0  0  0  0  0  0  0  0
   15.2803   -3.6259   -6.0422 C   0  0  0  0  0  0  0  0  0  0  0  0
   16.5206   -4.3638   -5.6489 C   0  0  0  0  0  0  0  0  0  0  0  0
   17.6875   -4.0156   -6.5758 C   0  0  0  0  0  0  0  0  0  0  0  0
   18.9448   -4.3977   -5.8372 C   0  0  0  0  0  0  0  0  0  0  0  0
   19.2159   -3.4899   -4.6635 C   0  0  0  0  0  0  0  0  0  0  0  0
   19.2941   -4.3337   -3.4300 C   0  0  1  0  0  0  0  0  0  0  0  0
   20.2471   -3.7648   -2.4369 C   0  0  0  0  0  0  0  0  0  0  0  0
   19.6541   -2.5718   -1.7474 C   0  0  0  0  0  0  0  0  0  0  0  0
   20.3943   -2.1117   -0.7689 C   0  0  0  0  0  0  0  0  0  0  0  0
   19.9404   -0.9294    0.0127 C   0  0  0  0  0  0  0  0  0  0  0  0
   19.2589    0.0943   -0.8293 C   0  0  0  0  0  0  0  0  0  0  0  0
   18.3065   -0.4632   -1.8271 C   0  0  0  0  0  0  0  0  0  0  0  0
   18.3789   -1.9230   -2.0705 C   0  0  2  0  0  0  0  0  0  0  0  0
   17.1796   -2.7185   -1.6790 C   0  0  0  0  0  0  0  0  0  0  0  0
   17.6469   -4.1687   -1.5417 C   0  0  0  0  0  0  0  0  0  0  0  0
   17.9738   -4.7608   -2.8867 C   0  0  2  0  0  0  0  0  0  0  0  0
   17.9369   -6.2822   -2.8240 C   0  0  0  0  0  0  0  0  0  0  0  0
   16.5992   -6.8012   -3.2978 C   0  0  0  0  0  0  0  0  0  0  0  0
   16.5917   -7.1972   -4.7404 C   0  0  0  0  0  0  0  0  0  0  0  0
   18.4448   -8.1169   -5.2692 I   0  0  0  0  0  0  0  0  0  0  0  0
  1  2  1  0
  2  3  1  0
  2  4  1  0
  4  5  1  0
  5  6  1  0
  6  7  1  0
  7  8  1  1
  7  9  1  0
  9 10  1  0
 10 11  1  0
 11 12  1  0
 12 13  1  6
 12 14  1  0
 14 15  1  0
 15 16  1  0
 16 17  1  0
 17 18  1  0
 18 19  1  0
 19 20  1  0
 20 21  1  0
 21 22  1  0
 22 23  1  0
 23 24  1  0
 25 24  1  6
 25 26  1  0
 26 27  1  0
 27 28  2  0
 28 29  1  0
 29 30  1  0
 30 31  1  0
 32 31  1  1
 32 33  1  0
 33 34  1  0
 34 35  1  0
 35 36  1  1
 36 37  1  0
 37 38  1  0
 38 39  1  0
 35 25  1  0
 32 27  1  0
M  CHG  1  17   1
M  RAD  3   9   2  14   2  17   3
M  END
>  <docking_score>  (1) 
1.631

$$$$

     RDKit          3D

 39 40  0  0  0  0  0  0  0  0999 V2000
   20.5784   -1.8580   -3.1227 C   0  0  0  0  0  0  0  0  0  0  0  0
   20.8734   -1.8617   -1.6349 C   0  0  0  0  0  0  0  0  0  0  0  0
   20.2989   -0.6052   -1.0323 C   0  0  0  0  0  0  0  0  0  0  0  0
   20.2623   -3.0387   -0.9307 C   0  0  0  0  0  0  0  0  0  0  0  0
   19.2978   -3.8115   -1.7952 C   0  0  0  0  0  0  0  0  0  0  0  0
   18.0045   -3.0160   -1.8347 C   0  0  0  0  0  0  0  0  0  0  0  0
   16.9114   -3.8363   -2.4843 C   0  0  1  0  0  0  0  0  0  0  0  0
   16.1083   -4.6016   -1.4550 C   0  0  0  0  0  0  0  0  0  0  0  0
   16.0488   -2.8837   -3.2784 C   0  0  0  0  0  3  0  0  0  0  0  0
   16.7839   -2.3296   -4.4800 C   0  0  0  0  0  0  0  0  0  0  0  0
   16.6805   -3.3258   -5.6039 C   0  0  0  0  0  0  0  0  0  0  0  0
   15.5540   -2.9578   -6.5238 C   0  0  2  0  0  0  0  0  0  0  0  0
   15.7221   -3.5032   -7.9203 C   0  0  0  0  0  0  0  0  0  0  0  0
   15.4685   -1.4445   -6.6307 C   0  0  0  0  0  3  0  0  0  0  0  0
   16.4708   -0.8605   -5.6791 C   0  0  0  0  0  0  0  0  0  0  0  0
   16.3118    0.6397   -5.5435 C   0  0  0  0  0  0  0  0  0  0  0  0
   17.3105    1.3475   -6.2964 N   0  0  0  0  0  2  0  0  0  0  0  0
   17.5086    2.6543   -5.6967 C   0  0  0  0  0  0  0  0  0  0  0  0
   18.9109    3.1567   -5.9249 C   0  0  0  0  0  0  0  0  0  0  0  0
   19.9172    2.1795   -5.3450 C   0  0  0  0  0  0  0  0  0  0  0  0
   20.9830    2.9003   -4.5820 C   0  0  0  0  0  0  0  0  0  0  0  0
   20.3830    3.7269   -3.4424 C   0  0  0  0  0  0  0  0  0  0  0  0
   21.1462    5.0266   -3.4134 C   0  0  0  0  0  0  0  0  0  0  0  0
   20.6023    5.9854   -2.3839 C   0  0  0  0  0  0  0  0  0  0  0  0
   19.2442    6.4277   -2.8305 C   0  0  1  0  0  0  0  0  0  0  0  0
   18.4529    6.9908   -1.7015 C   0  0  0  0  0  0  0  0  0  0  0  0
   18.9326    8.3665   -1.3442 C   0  0  0  0  0  0  0  0  0  0  0  0
   18.1869    8.9641   -0.4477 C   0  0  0  0  0  0  0  0  0  0  0  0
   18.5338   10.3366    0.0112 C   0  0  0  0  0  0  0  0  0  0  0  0
   20.0035   10.5517    0.1341 C   0  0  0  0  0  0  0  0  0  0  0  0
   20.8043    9.9906   -0.9873 C   0  0  0  0  0  0  0  0  0  0  0  0
   20.1069    9.0506   -1.8959 C   0  0  2  0  0  0  0  0  0  0  0  0
   19.9369    9.5000   -3.3078 C   0  0  0  0  0  0  0  0  0  0  0  0
   18.8040    8.6579   -3.8976 C   0  0  0  0  0  0  0  0  0  0  0  0
   19.2357    7.2283   -4.0875 C   0  0  2  0  0  0  0  0  0  0  0  0
   18.3443    6.5320   -5.1077 C   0  0  0  0  0  0  0  0  0  0  0  0
   18.4604    7.1997   -6.4582 C   0  0  0  0  0  0  0  0  0  0  0  0
   19.8287    7.7340   -6.7420 C   0  0  0  0  0  0  0  0  0  0  0  0
   21.3105    6.2672   -6.2818 I   0  0  0  0  0  0  0  0  0  0  0  0
  1  2  1  0
  2  3  1  0
  2  4  1  0
  4  5  1  0
  5  6  1  0
  6  7  1  0
  7  8  1  1
  7  9  1  0
  9 10  1  0
 10 11  1  0
 11 12  1  0
 12 13  1  6
 12 14  1  0
 14 15  1  0
 15 16  1  0
 16 17  1  0
 17 18  1  0
 18 19  1  0
 19 20  1  0
 20 21  1  0
 21 22  1  0
 22 23  1  0
 23 24  1  0
 25 24  1  1
 25 26  1  0
 26 27  1  0
 27 28  2  0
 28 29  1  0
 29 30  1  0
 30 31  1  0
 32 31  1  1
 32 33  1  0
 33 34  1  0
 34 35  1  0
 35 36  1  6
 36 37  1  0
 37 38  1  0
 38 39  1  0
 35 25  1  0
 32 27  1  0
M  CHG  1  17   1
M  RAD  3   9   2  14   2  17   3
M  END
>  <docking_score>  (2) 
2.9609999999999999

$$$$

     RDKit          3D

 39 40  0  0  0  0  0  0  0  0999 V2000
    5.5149   12.1711    2.5090 C   0  0  0  0  0  0  0  0  0  0  0  0
    4.8702   11.7195    3.8056 C   0  0  0  0  0  0  0  0  0  0  0  0
    4.4155   12.9413    4.5622 C   0  0  0  0  0  0  0  0  0  0  0  0
    3.6747   10.8402    3.5773 C   0  0  0  0  0  0  0  0  0  0  0  0
    3.9948    9.3691    3.6688 C   0  0  0  0  0  0  0  0  0  0  0  0
    4.8246    9.1746    4.9261 C   0  0  0  0  0  0  0  0  0  0  0  0
    3.9313    9.2095    6.1470 C   0  0  1  0  0  0  0  0  0  0  0  0
    3.7167    7.8235    6.7153 C   0  0  0  0  0  0  0  0  0  0  0  0
    4.5788   10.1361    7.1491 C   0  0  0  0  0  3  0  0  0  0  0  0
    4.3393    9.6795    8.5722 C   0  0  0  0  0  0  0  0  0  0  0  0
    2.8564    9.6845    8.8319 C   0  0  0  0  0  0  0  0  0  0  0  0
    2.2942   11.0581    8.6132 C   0  0  2  0  0  0  0  0  0  0  0  0
    2.5251   11.5815    7.2173 C   0  0  0  0  0  0  0  0  0  0  0  0
    2.9515   12.0283    9.5804 C   0  0  0  0  0  3  0  0  0  0  0  0
    2.7847   13.4123    9.0255 C   0  0  0  0  0  0  0  0  0  0  0  0
    2.3618   14.4004   10.0928 C   0  0  0  0  0  0  0  0  0  0  0  0
    3.4862   15.1254   10.6176 N   0  0  0  0  0  2  0  0  0  0  0  0
    4.3627   15.4872    9.5187 C   0  0  0  0  0  0  0  0  0  0  0  0
    5.6663   16.0538   10.0192 C   0  0  0  0  0  0  0  0  0  0  0  0
    6.8032   15.0943    9.7180 C   0  0  0  0  0  0  0  0  0  0  0  0
    7.8970   15.2280   10.7295 C   0  0  0  0  0  0  0  0  0  0  0  0
    8.5321   13.8705   11.0386 C   0  0  0  0  0  0  0  0  0  0  0  0
    9.8607   14.1617   11.6887 C   0  0  0  0  0  0  0  0  0  0  0  0
    9.8377   13.9048   13.1748 C   0  0  0  0  0  0  0  0  0  0  0  0
   11.2371   13.6155   13.6195 C   0  0  1  0  0  0  0  0  0  0  0  0
   11.5463   12.1607   13.5433 C   0  0  0  0  0  0  0  0  0  0  0  0
   11.7646   11.7327   12.1222 C   0  0  0  0  0  0  0  0  0  0  0  0
   12.1717   10.4926   12.0060 C   0  0  0  0  0  0  0  0  0  0  0  0
   12.4327    9.9201   10.6574 C   0  0  0  0  0  0  0  0  0  0  0  0
   11.4576   10.3874    9.6316 C   0  0  0  0  0  0  0  0  0  0  0  0
   11.1392   11.8392    9.7002 C   0  0  0  0  0  0  0  0  0  0  0  0
   11.5681   12.5558   10.9242 C   0  0  2  0  0  0  0  0  0  0  0  0
   12.6026   13.6145   10.7416 C   0  0  0  0  0  0  0  0  0  0  0  0
   13.2351   13.8443   12.1155 C   0  0  0  0  0  0  0  0  0  0  0  0
   12.2694   14.5258   13.0479 C   0  0  2  0  0  0  0  0  0  0  0  0
   13.0164   15.2010   14.1908 C   0  0  0  0  0  0  0  0  0  0  0  0
   12.3546   14.8926   15.5137 C   0  0  0  0  0  0  0  0  0  0  0  0
   13.3238   14.5259   16.5927 C   0  0  0  0  0  0  0  0  0  0  0  0
   13.5283   12.4043   16.7195 I   0  0  0  0  0  0  0  0  0  0  0  0
  1  2  1  0
  2  3  1  0
  2  4  1  0
  4  5  1  0
  5  6  1  0
  6  7  1  0
  7  8  1  1
  7  9  1  0
  9 10  1  0
 10 11  1  0
 11 12  1  0
 12 13  1  6
 12 14  1  0
 14 15  1  0
 15 16  1  0
 16 17  1  0
 17 18  1  0
 18 19  1  0
 19 20  1  0
 20 21  1  0
 21 22  1  0
 22 23  1  0
 23 24  1  0
 25 24  1  6
 25 26  1  0
 26 27  1  0
 27 28  2  0
 28 29  1  0
 29 30  1  0
 30 31  1  0
 32 31  1  6
 32 33  1  0
 33 34  1  0
 34 35  1  0
 35 36  1  1
 36 37  1  0
 37 38  1  0
 38 39  1  0
 35 25  1  0
 32 27  1  0
M  CHG  1  17   1
M  RAD  3   9   2  14   2  17   3
M  END
>  <docking_score>  (3) 
2.9750000000000001

$$$$
