
     RDKit          3D

 29 30  0  0  0  0  0  0  0  0999 V2000
    4.5416   10.2581    4.6665 O   0  0  0  0  0  0  0  0  0  0  0  0
    5.6859   10.7425    4.8535 C   0  0  0  0  0  0  0  0  0  0  0  0
    6.7627   10.1862    4.1902 O   0  0  0  0  0  0  0  0  0  0  0  0
    5.8647   11.8619    5.7509 C   0  0  1  0  0  0  0  0  0  0  0  0
    6.6041   12.9841    5.0046 C   0  0  0  0  0  0  0  0  0  0  0  0
    7.7350   13.5089    4.7422 C   0  0  0  0  0  0  0  0  0  0  0  0
    8.2834   14.5667    4.0268 C   0  0  0  0  0  0  0  0  0  0  0  0
    9.6639   15.5284    4.6815 Cl  0  0  0  0  0  0  0  0  0  0  0  0
    7.8877   14.9786    2.8465 C   0  0  0  0  0  0  0  0  0  0  0  0
    8.5365   16.0746    2.2251 O   0  0  0  0  0  0  0  0  0  0  0  0
    9.3721   15.9049    1.1060 C   0  0  0  0  0  0  0  0  0  0  0  0
    6.7851   14.4016    2.0463 C   0  0  0  0  0  0  0  0  0  0  0  0
    7.1961   13.0844    1.4399 C   0  0  0  0  0  0  0  0  0  0  0  0
    6.2777   12.1272    1.6046 C   0  0  0  0  0  0  0  0  0  0  0  0
    6.6269   10.7974    1.0248 C   0  0  0  0  0  0  0  0  0  0  0  0
    5.0415   12.3379    2.2795 C   0  0  0  0  0  0  0  0  0  0  0  0
    4.7081   12.8234    3.3877 C   0  0  0  0  0  0  0  0  0  0  0  0
    5.2930   13.4108    4.5536 C   0  0  1  0  0  0  0  0  0  0  0  0
    4.7716   12.8445    5.8598 C   0  0  0  0  0  0  0  0  0  0  0  0
    3.8050   13.1424    6.6479 C   0  0  0  0  0  0  0  0  0  0  0  0
    3.4429   12.4857    7.8738 C   0  0  0  0  0  0  0  0  0  0  0  0
    3.3588   13.0977    9.0414 C   0  0  0  0  0  0  0  0  0  0  0  0
    2.8957   12.1639   10.5002 S   0  0  0  0  0  0  0  0  0  0  0  0
    2.8757   10.5281   10.5180 C   0  0  0  0  0  0  0  0  0  0  0  0
    2.5009    9.7879   11.6992 C   0  0  0  0  0  0  0  0  0  0  0  0
    3.3561    9.5594   12.6717 C   0  0  0  0  0  0  0  0  0  0  0  0
    4.7511   10.0826   12.5448 C   0  0  0  0  0  0  0  0  0  0  0  0
    2.9428    8.7939   13.8771 C   0  0  0  0  0  0  0  0  0  0  0  0
    2.8308    6.9283   13.4514 Br  0  0  0  0  0  0  0  0  0  0  0  0
  1  2  2  0
  2  3  1  0
  4  2  1  6
  4  5  1  0
  5  6  2  3
  6  7  1  0
  7  8  1  0
  7  9  2  3
  9 10  1  0
 10 11  1  0
  9 12  1  0
 12 13  1  0
 13 14  2  3
 14 15  1  0
 14 16  1  0
 16 17  2  3
 18 17  1  6
 18 19  1  0
 19 20  2  3
 20 21  1  0
 21 22  2  3
 22 23  1  0
 23 24  2  3
 24 25  1  0
 25 26  2  3
 26 27  1  0
 26 28  1  0
 28 29  1  0
 19  4  1  0
 18  5  1  0
M  END
>  <docking_score>  (1) 
-4.2510000000000003

$$$$

     RDKit          3D

 29 30  0  0  0  0  0  0  0  0999 V2000
    6.8387   10.2548    3.6290 O   0  0  0  0  0  0  0  0  0  0  0  0
    5.9015   10.7559    4.2995 C   0  0  0  0  0  0  0  0  0  0  0  0
    4.6169   10.2852    4.1065 O   0  0  0  0  0  0  0  0  0  0  0  0
    6.1707   11.8086    5.2533 C   0  0  1  0  0  0  0  0  0  0  0  0
    6.9478   12.9318    4.5479 C   0  0  0  0  0  0  0  0  0  0  0  0
    8.0974   13.4095    4.2772 C   0  0  0  0  0  0  0  0  0  0  0  0
    8.6813   14.4770    3.6055 C   0  0  0  0  0  0  0  0  0  0  0  0
   10.1332   15.3222    4.2664 Cl  0  0  0  0  0  0  0  0  0  0  0  0
    8.2723   14.9792    2.4654 C   0  0  0  0  0  0  0  0  0  0  0  0
    8.9615   16.0737    1.8862 O   0  0  0  0  0  0  0  0  0  0  0  0
    9.9132   15.8951    0.8655 C   0  0  0  0  0  0  0  0  0  0  0  0
    7.1146   14.5112    1.6719 C   0  0  0  0  0  0  0  0  0  0  0  0
    7.4322   13.2122    0.9766 C   0  0  0  0  0  0  0  0  0  0  0  0
    6.4674   12.2978    1.1174 C   0  0  0  0  0  0  0  0  0  0  0  0
    6.7233   10.9879    0.4501 C   0  0  0  0  0  0  0  0  0  0  0  0
    5.2667   12.5342    1.8458 C   0  0  0  0  0  0  0  0  0  0  0  0
    4.9959   12.9701    2.9910 C   0  0  0  0  0  0  0  0  0  0  0  0
    5.6490   13.4547    4.1680 C   0  0  1  0  0  0  0  0  0  0  0  0
    5.1381   12.8405    5.4566 C   0  0  0  0  0  0  0  0  0  0  0  0
    4.2149   13.1425    6.2935 C   0  0  0  0  0  0  0  0  0  0  0  0
    3.8553   12.4345    7.4913 C   0  0  0  0  0  0  0  0  0  0  0  0
    2.6526   11.9397    7.7227 C   0  0  0  0  0  0  0  0  0  0  0  0
    2.3307   11.0751    9.2601 S   0  0  0  0  0  0  0  0  0  0  0  0
    3.3033   11.2286   10.5666 C   0  0  0  0  0  0  0  0  0  0  0  0
    3.0331   10.5269   11.7988 C   0  0  0  0  0  0  0  0  0  0  0  0
    3.6446    9.4030   12.1022 C   0  0  0  0  0  0  0  0  0  0  0  0
    4.6446    8.8426   11.1421 C   0  0  0  0  0  0  0  0  0  0  0  0
    3.3467    8.7013   13.3785 C   0  0  0  0  0  0  0  0  0  0  0  0
    3.0330    9.9869   14.7652 Br  0  0  0  0  0  0  0  0  0  0  0  0
  1  2  2  0
  2  3  1  0
  4  2  1  6
  4  5  1  0
  5  6  2  3
  6  7  1  0
  7  8  1  0
  7  9  2  3
  9 10  1  0
 10 11  1  0
  9 12  1  0
 12 13  1  0
 13 14  2  3
 14 15  1  0
 14 16  1  0
 16 17  2  3
 18 17  1  6
 18 19  1  0
 19 20  2  3
 20 21  1  0
 21 22  2  3
 22 23  1  0
 23 24  2  3
 24 25  1  0
 25 26  2  3
 26 27  1  0
 26 28  1  0
 28 29  1  0
 19  4  1  0
 18  5  1  0
M  END
>  <docking_score>  (2) 
-3.948

$$$$

     RDKit          3D

 29 30  0  0  0  0  0  0  0  0999 V2000
    4.3343   11.0032    4.9026 O   0  0  0  0  0  0  0  0  0  0  0  0
    5.5421   11.2988    5.0844 C   0  0  0  0  0  0  0  0  0  0  0  0
    6.5142   10.5661    4.4309 O   0  0  0  0  0  0  0  0  0  0  0  0
    5.9003   12.3874    5.9659 C   0  0  1  0  0  0  0  0  0  0  0  0
    6.8054   13.3678    5.2026 C   0  0  0  0  0  0  0  0  0  0  0  0
    8.0042   13.7026    4.9306 C   0  0  0  0  0  0  0  0  0  0  0  0
    8.7106   14.6502    4.1995 C   0  0  0  0  0  0  0  0  0  0  0  0
   10.2292   15.3890    4.8379 Cl  0  0  0  0  0  0  0  0  0  0  0  0
    8.3804   15.1040    3.0144 C   0  0  0  0  0  0  0  0  0  0  0  0
    9.1924   16.0747    2.3766 O   0  0  0  0  0  0  0  0  0  0  0  0
    9.4645   16.0238    0.9971 C   0  0  0  0  0  0  0  0  0  0  0  0
    7.1967   14.6990    2.2246 C   0  0  0  0  0  0  0  0  0  0  0  0
    7.3906   13.3253    1.6356 C   0  0  0  0  0  0  0  0  0  0  0  0
    6.3325   12.5285    1.8155 C   0  0  0  0  0  0  0  0  0  0  0  0
    6.4635   11.1525    1.2534 C   0  0  0  0  0  0  0  0  0  0  0  0
    5.1484   12.9419    2.4900 C   0  0  0  0  0  0  0  0  0  0  0  0
    4.9011   13.4889    3.5920 C   0  0  0  0  0  0  0  0  0  0  0  0
    5.5769   13.9914    4.7485 C   0  0  1  0  0  0  0  0  0  0  0  0
    4.9777   13.5326    6.0635 C   0  0  0  0  0  0  0  0  0  0  0  0
    4.0741   13.9908    6.8494 C   0  0  0  0  0  0  0  0  0  0  0  0
    3.6174   13.4164    8.0850 C   0  0  0  0  0  0  0  0  0  0  0  0
    3.5233   12.1172    8.3042 C   0  0  0  0  0  0  0  0  0  0  0  0
    2.9379   11.5264    9.8926 S   0  0  0  0  0  0  0  0  0  0  0  0
    3.9526   10.9270   11.0274 C   0  0  0  0  0  0  0  0  0  0  0  0
    3.4686   10.4545   12.3026 C   0  0  0  0  0  0  0  0  0  0  0  0
    3.0399    9.2220   12.4653 C   0  0  0  0  0  0  0  0  0  0  0  0
    3.0570    8.2908   11.2954 C   0  0  0  0  0  0  0  0  0  0  0  0
    2.5467    8.7621   13.7901 C   0  0  0  0  0  0  0  0  0  0  0  0
    2.2691   10.2727   14.9367 Br  0  0  0  0  0  0  0  0  0  0  0  0
  1  2  2  0
  2  3  1  0
  4  2  1  6
  4  5  1  0
  5  6  2  3
  6  7  1  0
  7  8  1  0
  7  9  2  3
  9 10  1  0
 10 11  1  0
  9 12  1  0
 12 13  1  0
 13 14  2  3
 14 15  1  0
 14 16  1  0
 16 17  2  3
 18 17  1  6
 18 19  1  0
 19 20  2  3
 20 21  1  0
 21 22  2  3
 22 23  1  0
 23 24  2  3
 24 25  1  0
 25 26  2  3
 26 27  1  0
 26 28  1  0
 28 29  1  0
 19  4  1  0
 18  5  1  0
M  END
>  <docking_score>  (3) 
-3.879

$$$$
