
     RDKit          3D

 21 20  0  0  0  0  0  0  0  0999 V2000
   18.8284   -2.6342   -8.0959 C   0  0  0  0  0  0  0  0  0  0  0  0
   17.9263   -1.8339   -7.2347 C   0  0  0  0  0  0  0  0  0  0  0  0
   16.5768   -2.4496   -7.1822 C   0  0  0  0  0  0  0  0  0  0  0  0
   18.5389   -1.8557   -5.8098 C   0  0  0  0  0  0  0  0  0  0  0  0
   17.3129   -1.3482   -4.8945 C   0  0  0  0  0  0  0  0  0  0  0  0
   17.4620   -1.7342   -3.4801 C   0  0  0  0  0  0  0  0  0  0  0  0
   18.8563   -2.1001   -3.0882 C   0  0  1  0  0  0  0  0  0  0  0  0
   19.3411   -1.1813   -1.8587 C   0  0  0  0  0  0  0  0  0  0  0  0
   18.7649   -3.5265   -2.4095 C   0  0  2  0  0  0  0  0  0  0  0  0
   19.5836   -3.4815   -1.1242 C   0  0  0  0  0  2  0  0  0  0  0  0
   19.0124   -4.6988   -3.2825 C   0  0  0  0  0  3  0  0  0  0  0  0
   20.4893   -5.1285   -3.0333 C   0  0  0  0  0  2  0  0  0  0  0  0
   18.0670   -5.8389   -3.0785 C   0  0  0  0  0  0  0  0  0  0  0  0
   17.2170   -5.9904   -4.3362 C   0  0  1  0  0  0  0  0  0  0  0  0
   16.0356   -4.9117   -4.2778 C   0  0  0  0  0  0  0  0  0  0  0  0
   18.0825   -5.4099   -5.5529 C   0  0  0  0  0  0  0  0  0  0  0  0
   18.2216   -6.7150   -6.3591 C   0  0  0  0  0  0  0  0  0  0  0  0
   17.0793   -7.5325   -6.0801 O   0  0  0  0  0  0  0  0  0  0  0  0
   17.3397   -8.7432   -6.0700 O   0  0  0  0  0  0  0  0  0  0  0  0
   16.9600   -9.9035   -5.5137 C   0  0  0  0  0  0  0  0  0  0  0  0
   15.7986  -10.0893   -5.0288 O   0  0  0  0  0  0  0  0  0  0  0  0
  1  2  1  0
  2  3  1  0
  2  4  1  0
  4  5  1  0
  5  6  1  0
  6  7  1  0
  7  8  1  1
  7  9  1  0
  9 10  1  1
  9 11  1  0
 11 12  1  0
 11 13  1  0
 13 14  1  0
 14 15  1  1
 14 16  1  0
 16 17  1  0
 17 18  1  0
 18 19  1  0
 19 20  1  0
 20 21  2  0
M  RAD  3  10   3  11   2  12   3
M  END
>  <docking_score>  (1) 
-3.4079999999999999

$$$$

     RDKit          3D

 21 20  0  0  0  0  0  0  0  0999 V2000
   16.2699   -4.2554   -1.1786 C   0  0  0  0  0  0  0  0  0  0  0  0
   17.4615   -3.7951   -1.9296 C   0  0  0  0  0  0  0  0  0  0  0  0
   18.0154   -4.8991   -2.7525 C   0  0  0  0  0  0  0  0  0  0  0  0
   16.9800   -2.6632   -2.8746 C   0  0  0  0  0  0  0  0  0  0  0  0
   17.8805   -2.9000   -4.1905 C   0  0  0  0  0  0  0  0  0  0  0  0
   17.3627   -2.1837   -5.3697 C   0  0  0  0  0  0  0  0  0  0  0  0
   15.9717   -2.5663   -5.7574 C   0  0  1  0  0  0  0  0  0  0  0  0
   15.1531   -1.2622   -6.2265 C   0  0  0  0  0  0  0  0  0  0  0  0
   16.0967   -3.3741   -7.1122 C   0  0  2  0  0  0  0  0  0  0  0  0
   15.7768   -2.4162   -8.2543 C   0  0  0  0  0  2  0  0  0  0  0  0
   15.4132   -4.6884   -7.1718 C   0  0  0  0  0  3  0  0  0  0  0  0
   14.6246   -4.7132   -8.5155 C   0  0  0  0  0  2  0  0  0  0  0  0
   16.3210   -5.8696   -7.0460 C   0  0  0  0  0  0  0  0  0  0  0  0
   16.4046   -6.2577   -5.5731 C   0  0  1  0  0  0  0  0  0  0  0  0
   14.9181   -6.3087   -4.9811 C   0  0  0  0  0  0  0  0  0  0  0  0
   16.7917   -7.8115   -5.5246 C   0  0  0  0  0  0  0  0  0  0  0  0
   17.5655   -7.8814   -6.8546 C   0  0  0  0  0  0  0  0  0  0  0  0
   18.8895   -8.3490   -6.5733 O   0  0  0  0  0  0  0  0  0  0  0  0
   19.6591   -7.4449   -6.2214 O   0  0  0  0  0  0  0  0  0  0  0  0
   20.0532   -6.2040   -6.5448 C   0  0  0  0  0  0  0  0  0  0  0  0
   20.1101   -5.2552   -5.6993 O   0  0  0  0  0  0  0  0  0  0  0  0
  1  2  1  0
  2  3  1  0
  2  4  1  0
  4  5  1  0
  5  6  1  0
  6  7  1  0
  7  8  1  6
  7  9  1  0
  9 10  1  6
  9 11  1  0
 11 12  1  0
 11 13  1  0
 13 14  1  0
 14 15  1  6
 14 16  1  0
 16 17  1  0
 17 18  1  0
 18 19  1  0
 19 20  1  0
 20 21  2  0
M  RAD  3  10   3  11   2  12   3
M  END
>  <docking_score>  (2) 
-3.2839999999999998

$$$$

     RDKit          3D

 21 20  0  0  0  0  0  0  0  0999 V2000
   17.3809   -1.6978   -3.4210 C   0  0  0  0  0  0  0  0  0  0  0  0
   18.5341   -2.4600   -2.8870 C   0  0  0  0  0  0  0  0  0  0  0  0
   18.2052   -3.0381   -1.5600 C   0  0  0  0  0  0  0  0  0  0  0  0
   18.7988   -3.6194   -3.8830 C   0  0  0  0  0  0  0  0  0  0  0  0
   19.0293   -4.8773   -2.9018 C   0  0  0  0  0  0  0  0  0  0  0  0
   18.2344   -6.0553   -3.2918 C   0  0  0  0  0  0  0  0  0  0  0  0
   18.7750   -6.7967   -4.4705 C   0  0  1  0  0  0  0  0  0  0  0  0
   19.0587   -8.3305   -4.0727 C   0  0  0  0  0  0  0  0  0  0  0  0
   17.5735   -6.9440   -5.4895 C   0  0  2  0  0  0  0  0  0  0  0  0
   17.6862   -8.3163   -6.1439 C   0  0  0  0  0  2  0  0  0  0  0  0
   17.3425   -5.8116   -6.4181 C   0  0  0  0  0  3  0  0  0  0  0  0
   18.6823   -5.5894   -7.1820 C   0  0  0  0  0  2  0  0  0  0  0  0
   16.1979   -6.0018   -7.3608 C   0  0  0  0  0  0  0  0  0  0  0  0
   15.1185   -4.9791   -7.0201 C   0  0  1  0  0  0  0  0  0  0  0  0
   14.1311   -5.6303   -5.9413 C   0  0  0  0  0  0  0  0  0  0  0  0
   15.8183   -3.8464   -6.1292 C   0  0  0  0  0  0  0  0  0  0  0  0
   16.1048   -2.8346   -7.2548 C   0  0  0  0  0  0  0  0  0  0  0  0
   15.0345   -1.8834   -7.2789 O   0  0  0  0  0  0  0  0  0  0  0  0
   15.1785   -0.9696   -6.4555 O   0  0  0  0  0  0  0  0  0  0  0  0
   14.5460   -0.3336   -5.4580 C   0  0  0  0  0  0  0  0  0  0  0  0
   13.4874   -0.7831   -4.9141 O   0  0  0  0  0  0  0  0  0  0  0  0
  1  2  1  0
  2  3  1  0
  2  4  1  0
  4  5  1  0
  5  6  1  0
  6  7  1  0
  7  8  1  1
  7  9  1  0
  9 10  1  6
  9 11  1  0
 11 12  1  0
 11 13  1  0
 13 14  1  0
 14 15  1  1
 14 16  1  0
 16 17  1  0
 17 18  1  0
 18 19  1  0
 19 20  1  0
 20 21  2  0
M  RAD  3  10   3  11   2  12   3
M  END
>  <docking_score>  (3) 
-3.0459999999999998

$$$$
