
     RDKit          3D

 66 69  0  0  0  0  0  0  0  0999 V2000
   18.1672   -3.1386   -3.4802 C   0  0  1  0  0  0  0  0  0  0  0  0
   17.4286   -2.3464   -2.4320 C   0  0  0  0  0  2  0  0  0  0  0  0
   18.3924   -2.0806   -1.2941 C   0  0  0  0  0  0  0  0  0  0  0  0
   19.2495   -3.2881   -0.9850 C   0  0  2  0  0  0  0  0  0  0  0  0
   18.9306   -3.8448    0.3950 C   0  0  0  0  0  0  0  0  0  0  0  0
   20.6119   -2.9408   -1.0526 O   0  0  0  0  0  0  0  0  0  0  0  0
   21.3495   -4.0893   -1.2228 C   0  0  0  0  0  0  0  0  0  0  0  0
   20.5496   -5.1490   -1.9529 C   0  0  0  0  0  3  0  0  0  0  0  0
   20.6438   -4.8447   -3.4312 C   0  0  0  0  0  0  0  0  0  0  0  0
   19.3102   -5.2125   -4.0550 C   0  0  0  0  0  3  0  0  0  0  0  0
   18.2293   -4.5967   -3.1905 C   0  0  2  0  0  0  0  0  0  0  0  0
   16.9501   -5.3372   -3.3925 C   0  0  0  0  0  0  0  0  0  0  0  0
   16.5623   -5.3271   -4.8322 C   0  0  0  0  0  3  0  0  0  0  0  0
   17.1004   -6.4934   -5.6189 C   0  0  2  0  0  0  0  0  0  0  0  0
   16.2658   -6.5660   -6.9042 C   0  0  0  0  0  1  0  0  0  0  0  0
   16.8872   -7.8175   -4.9136 C   0  0  2  0  0  0  0  0  0  0  0  0
   15.5974   -8.5151   -5.3096 C   0  0  0  0  0  0  0  0  0  0  0  0
   17.2501   -7.8798   -3.5215 C   0  0  0  0  0  0  0  0  0  0  0  0
   18.2747   -8.6457   -3.7032 C   0  0  0  0  0  0  0  0  0  0  0  0
   18.0583   -8.6963   -5.1440 C   0  0  2  0  0  0  0  0  0  0  0  0
   19.1823   -8.0635   -5.9025 C   0  0  0  0  0  0  0  0  0  0  0  0
   18.8347   -7.8176   -7.3349 C   0  0  0  0  0  0  0  0  0  0  0  0
   20.0743   -7.5803   -8.1675 C   0  0  0  0  0  3  0  0  0  0  0  0
   20.9278   -6.5590   -7.4460 C   0  0  0  0  0  2  0  0  0  0  0  0
   20.1407   -5.4371   -7.1901 O   0  0  0  0  0  0  0  0  0  0  0  0
   20.9473   -4.3056   -7.3853 C   0  0  0  0  0  3  0  0  0  0  0  0
   20.6908   -3.3771   -6.3569 O   0  0  0  0  0  0  0  0  0  0  0  0
   19.4212   -2.8555   -6.5914 C   0  0  1  0  0  0  0  0  0  0  0  0
   18.5862   -3.9119   -6.9440 O   0  0  0  0  0  0  0  0  0  0  0  0
   18.9020   -2.0915   -5.4995 N   0  0  0  0  0  0  0  0  0  0  0  0
   17.8134   -2.7730   -4.8724 C   0  0  2  0  0  0  0  0  0  0  0  0
   16.4918   -2.0608   -4.9965 C   0  0  0  0  0  0  0  0  0  0  0  0
   16.6387   -0.7338   -5.6791 C   0  0  1  0  0  0  0  0  0  0  0  0
   15.7590   -0.6162   -6.8791 C   0  0  0  0  0  3  0  0  0  0  0  0
   15.5699   -1.9073   -7.6143 C   0  0  0  0  0  3  0  0  0  0  0  0
   14.5250   -2.7994   -6.9836 C   0  0  0  0  0  3  0  0  0  0  0  0
   13.1998   -2.0983   -6.8040 C   0  0  0  0  0  2  0  0  0  0  0  0
   12.9394   -1.0996   -7.9125 C   0  0  0  0  0  3  0  0  0  0  0  0
   12.4960    0.0788   -7.3076 O   0  0  0  0  0  0  0  0  0  0  0  0
   11.3033    0.5269   -7.8693 C   0  0  0  0  0  3  0  0  0  0  0  0
   10.2761   -0.3989   -7.7275 O   0  0  0  0  0  0  0  0  0  0  0  0
    9.3306   -0.2164   -8.7382 C   0  0  0  0  0  0  0  0  0  0  0  0
    7.9708   -0.7644   -8.3468 C   0  0  0  0  0  0  0  0  0  0  0  0
    8.0579   -1.6535   -7.1210 C   0  0  0  0  0  3  0  0  0  0  0  0
    7.0784   -1.2306   -6.2311 O   0  0  0  0  0  0  0  0  0  0  0  0
    7.2863   -1.7568   -5.0313 O   0  0  0  0  0  0  0  0  0  0  0  0
    7.3510   -0.7478   -4.0790 C   0  0  0  0  0  3  0  0  0  0  0  0
   16.4216    0.4135   -4.7146 C   0  0  0  0  0  3  0  0  0  0  0  0
   15.0715    0.7564   -4.7706 O   0  0  0  0  0  0  0  0  0  0  0  0
   14.4748    0.5802   -3.5227 C   0  0  0  0  0  3  0  0  0  0  0  0
   13.7297   -0.7428   -3.4716 C   0  0  0  0  0  3  0  0  0  0  0  0
   12.2253   -0.5176   -3.4671 C   0  0  1  0  0  0  0  0  0  0  0  0
   11.8990    0.5632   -4.2793 O   0  0  0  0  0  0  0  0  0  0  0  0
   11.5045   -1.7760   -3.8746 C   0  0  0  0  0  3  0  0  0  0  0  0
   10.1583   -1.3795   -4.4357 C   0  0  0  0  0  2  0  0  0  0  0  0
    9.6497   -0.3324   -3.6592 O   0  0  0  0  0  0  0  0  0  0  0  0
    8.5443    0.1696   -4.3192 C   0  0  2  0  0  0  0  0  0  0  0  0
    8.2301    1.5770   -3.9071 C   0  0  0  0  0  3  0  0  0  0  0  0
    8.9354    2.4563   -4.7309 O   0  0  0  0  0  0  0  0  0  0  0  0
    8.0113    3.1670   -5.4975 C   0  0  0  0  0  3  0  0  0  0  0  0
    6.6321    2.9844   -4.9107 C   0  0  0  0  0  2  0  0  0  0  0  0
    5.9871    4.2226   -4.8843 O   0  0  0  0  0  0  0  0  0  0  0  0
    4.8225    4.1433   -4.1102 C   0  0  0  0  0  3  0  0  0  0  0  0
    5.1431    3.3291   -2.8671 C   0  0  0  0  0  0  0  0  0  0  0  0
    4.2363    2.0998   -2.8133 C   0  0  0  0  0  3  0  0  0  0  0  0
    4.8109    1.0884   -2.0516 O   0  0  0  0  0  0  0  0  0  0  0  0
  1  2  1  1
  2  3  1  0
  3  4  1  0
  4  5  1  1
  4  6  1  0
  6  7  1  0
  7  8  1  0
  8  9  1  0
  9 10  1  0
 11 10  1  6
 11 12  1  0
 12 13  1  0
 13 14  1  0
 14 15  1  6
 14 16  1  0
 16 17  1  1
 16 18  1  0
 18 19  2  0
 19 20  1  0
 20 21  1  6
 21 22  1  0
 22 23  1  0
 23 24  1  0
 24 25  1  0
 25 26  1  0
 26 27  1  0
 27 28  1  0
 28 29  1  1
 28 30  1  0
 30 31  1  0
 31 32  1  1
 33 32  1  1
 33 34  1  0
 34 35  1  0
 35 36  1  0
 36 37  1  0
 37 38  1  0
 38 39  1  0
 39 40  1  0
 40 41  1  0
 41 42  1  0
 42 43  1  0
 43 44  1  0
 44 45  1  0
 45 46  1  0
 46 47  1  0
 33 48  1  0
 48 49  1  0
 49 50  1  0
 50 51  1  0
 51 52  1  0
 52 53  1  6
 52 54  1  0
 54 55  1  0
 55 56  1  0
 56 57  1  0
 57 58  1  1
 58 59  1  0
 59 60  1  0
 60 61  1  0
 61 62  1  0
 62 63  1  0
 63 64  1  0
 64 65  1  0
 65 66  1  0
 11  1  1  0
 31  1  1  0
 20 16  1  0
 57 47  1  0
M  RAD  8   2   3   8   2  10   2  13   2  15   2  23   2  24   3  26   2
M  RAD  8  34   2  35   2  36   2  37   3  38   2  40   2  44   2  47   2
M  RAD  8  48   2  50   2  51   2  54   2  55   3  58   2  60   2  61   3
M  RAD  2  63   2  65   2
M  END
>  <docking_score>  (1) 
80.838999999999999

$$$$
