
     RDKit          3D

 13 12  0  0  0  0  0  0  0  0999 V2000
   20.1509   -3.6396   -1.4122 C   0  0  0  0  0  0  0  0  0  0  0  0
   18.9127   -2.8440   -1.8077 C   0  0  0  0  0  0  0  0  0  0  0  0
   17.7145   -3.7902   -1.7976 C   0  0  2  0  0  0  0  0  0  0  0  0
   18.0946   -5.0706   -2.5274 C   0  0  0  0  0  0  0  0  0  0  0  0
   16.5989   -3.1012   -2.4768 C   0  0  0  0  0  0  0  0  0  0  0  0
   16.4216   -1.8734   -2.3023 O   0  0  0  0  0  0  0  0  0  0  0  0
   15.7707   -3.8544   -3.3005 O   0  0  0  0  0  0  0  0  0  0  0  0
   15.8029   -3.5535   -4.6911 C   0  0  0  0  0  3  0  0  0  0  0  0
   14.6973   -2.5521   -4.9726 C   0  0  0  0  0  0  0  0  0  0  0  0
   15.2350   -1.4224   -5.8187 C   0  0  2  0  0  0  0  0  0  0  0  0
   14.3295   -0.3408   -5.7914 O   0  0  0  0  0  0  0  0  0  0  0  0
   15.3222   -1.9386   -7.1978 C   0  0  0  0  0  0  0  0  0  0  0  0
   15.3956   -2.3251   -8.2799 N   0  0  0  0  0  0  0  0  0  0  0  0
  1  2  1  0
  2  3  1  0
  3  4  1  6
  3  5  1  0
  5  6  2  0
  5  7  1  0
  7  8  1  0
  8  9  1  0
  9 10  1  0
 10 11  1  6
 10 12  1  0
 12 13  3  0
M  RAD  1   8   2
M  END
>  <docking_score>  (1) 
-3.6720000000000002

$$$$

     RDKit          3D

 13 12  0  0  0  0  0  0  0  0999 V2000
   13.7144    0.1789   -4.4392 C   0  0  0  0  0  0  0  0  0  0  0  0
   14.2301   -0.5973   -5.6450 C   0  0  0  0  0  0  0  0  0  0  0  0
   15.6184   -1.1356   -5.3075 C   0  0  2  0  0  0  0  0  0  0  0  0
   16.2520   -1.6881   -6.5763 C   0  0  0  0  0  0  0  0  0  0  0  0
   15.4494   -2.1944   -4.2921 C   0  0  0  0  0  0  0  0  0  0  0  0
   14.7727   -3.2147   -4.5575 O   0  0  0  0  0  0  0  0  0  0  0  0
   16.0588   -2.0169   -3.0557 O   0  0  0  0  0  0  0  0  0  0  0  0
   16.8072   -3.1145   -2.5454 C   0  0  0  0  0  3  0  0  0  0  0  0
   18.0357   -3.2827   -3.4212 C   0  0  0  0  0  0  0  0  0  0  0  0
   19.2822   -3.0344   -2.6052 C   0  0  2  0  0  0  0  0  0  0  0  0
   19.0346   -3.3604   -1.2551 O   0  0  0  0  0  0  0  0  0  0  0  0
   19.5651   -1.5900   -2.7043 C   0  0  0  0  0  0  0  0  0  0  0  0
   19.7998   -0.4647   -2.7702 N   0  0  0  0  0  0  0  0  0  0  0  0
  1  2  1  0
  2  3  1  0
  3  4  1  6
  3  5  1  0
  5  6  2  0
  5  7  1  0
  7  8  1  0
  8  9  1  0
  9 10  1  0
 10 11  1  1
 10 12  1  0
 12 13  3  0
M  RAD  1   8   2
M  END
>  <docking_score>  (2) 
-3.6000000000000001

$$$$

     RDKit          3D

 13 12  0  0  0  0  0  0  0  0999 V2000
   16.7927   -4.2422   -2.0680 C   0  0  0  0  0  0  0  0  0  0  0  0
   18.1132   -3.4864   -1.9816 C   0  0  0  0  0  0  0  0  0  0  0  0
   17.8263   -2.0005   -2.1837 C   0  0  2  0  0  0  0  0  0  0  0  0
   16.3266   -1.8100   -2.3594 C   0  0  0  0  0  0  0  0  0  0  0  0
   18.5630   -1.5658   -3.3875 C   0  0  0  0  0  0  0  0  0  0  0  0
   19.4968   -0.7370   -3.2853 O   0  0  0  0  0  0  0  0  0  0  0  0
   18.1863   -2.1024   -4.6129 O   0  0  0  0  0  0  0  0  0  0  0  0
   17.9117   -1.1793   -5.6607 C   0  0  0  0  0  3  0  0  0  0  0  0
   17.0474   -1.8895   -6.6869 C   0  0  0  0  0  0  0  0  0  0  0  0
   15.7267   -2.2744   -6.0633 C   0  0  2  0  0  0  0  0  0  0  0  0
   14.9951   -3.0753   -6.9655 O   0  0  0  0  0  0  0  0  0  0  0  0
   14.9905   -1.0166   -5.8349 C   0  0  0  0  0  0  0  0  0  0  0  0
   14.4017   -0.0444   -5.6507 N   0  0  0  0  0  0  0  0  0  0  0  0
  1  2  1  0
  2  3  1  0
  3  4  1  6
  3  5  1  0
  5  6  2  0
  5  7  1  0
  7  8  1  0
  8  9  1  0
  9 10  1  0
 10 11  1  6
 10 12  1  0
 12 13  3  0
M  RAD  1   8   2
M  END
>  <docking_score>  (3) 
-3.5979999999999999

$$$$
