
     RDKit          3D

 24 25  0  0  0  0  0  0  0  0999 V2000
    4.2931    9.1913    6.6691 C   0  0  0  0  0  0  0  0  0  0  0  0
    5.4311    8.9404    5.7010 C   0  0  1  0  0  0  0  0  0  0  0  0
    5.2334    7.6826    4.9044 C   0  0  0  0  0  0  0  0  0  0  0  0
    4.1964    7.7888    3.8329 C   0  0  2  0  0  0  0  0  0  0  0  0
    4.3901    6.7273    2.9444 O   0  0  0  0  0  0  0  0  0  0  0  0
    4.2513    9.0558    3.0336 C   0  0  2  0  0  0  0  0  0  0  0  0
    5.4225    9.1053    2.2767 O   0  0  0  0  0  0  0  0  0  0  0  0
    4.3214   10.2436    3.9896 C   0  0  1  0  0  0  0  0  0  0  0  0
    3.2332   10.0783    4.8631 O   0  0  0  0  0  0  0  0  0  0  0  0
    5.6294   10.0656    4.7279 C   0  0  1  0  0  0  0  0  0  0  0  0
    6.1379   11.2707    5.3051 N   0  0  0  0  0  0  0  0  0  0  0  0
    6.8394   11.9887    4.2446 C   0  0  0  0  0  3  0  0  0  0  0  0
    6.4665   13.4434    4.3328 C   0  0  1  0  0  0  0  0  0  0  0  0
    5.0327   13.7147    3.9768 C   0  0  0  0  0  0  0  0  0  0  0  0
    6.6607   13.9634    5.6243 O   0  0  0  0  0  0  0  0  0  0  0  0
    6.6621   15.3583    5.4582 C   0  0  1  0  0  0  0  0  0  0  0  0
    6.1014   15.9776    6.5636 O   0  0  0  0  0  0  0  0  0  0  0  0
    6.4496   15.2477    7.6922 C   0  0  0  0  0  2  0  0  0  0  0  0
    8.0172   15.8951    5.0984 C   0  0  0  0  0  0  0  0  0  0  0  0
    9.0134   14.9356    5.0848 O   0  0  0  0  0  0  0  0  0  0  0  0
    8.8062   13.9997    4.0896 C   0  0  2  0  0  0  0  0  0  0  0  0
    9.8212   13.9435    3.1531 O   0  0  0  0  0  0  0  0  0  0  0  0
    7.4390   14.2176    3.4540 C   0  0  1  0  0  0  0  0  0  0  0  0
    7.4277   13.7866    2.1412 O   0  0  0  0  0  0  0  0  0  0  0  0
  2  1  1  6
  2  3  1  0
  3  4  1  0
  4  5  1  6
  4  6  1  0
  6  7  1  6
  6  8  1  0
  8  9  1  1
  8 10  1  0
 10 11  1  1
 11 12  1  0
 12 13  1  0
 13 14  1  6
 13 15  1  0
 15 16  1  0
 16 17  1  1
 17 18  1  0
 16 19  1  0
 19 20  1  0
 20 21  1  0
 21 22  1  6
 21 23  1  0
 23 24  1  6
 10  2  1  0
 23 13  1  0
M  RAD  2  12   2  18   3
M  END
>  <docking_score>  (1) 
-4.5419999999999998

$$$$

     RDKit          3D

 24 25  0  0  0  0  0  0  0  0999 V2000
   16.7817   -2.2111   -2.2199 C   0  0  0  0  0  0  0  0  0  0  0  0
   17.8104   -2.0336   -3.3179 C   0  0  1  0  0  0  0  0  0  0  0  0
   18.9863   -1.2143   -2.8686 C   0  0  0  0  0  0  0  0  0  0  0  0
   19.9236   -1.9331   -1.9523 C   0  0  2  0  0  0  0  0  0  0  0  0
   21.1296   -1.2266   -1.9349 O   0  0  0  0  0  0  0  0  0  0  0  0
   20.2372   -3.3416   -2.3585 C   0  0  2  0  0  0  0  0  0  0  0  0
   20.9649   -3.3560   -3.5490 O   0  0  0  0  0  0  0  0  0  0  0  0
   18.9321   -4.0743   -2.6580 C   0  0  1  0  0  0  0  0  0  0  0  0
   18.1374   -3.8946   -1.5130 O   0  0  0  0  0  0  0  0  0  0  0  0
   18.3401   -3.3375   -3.8387 C   0  0  1  0  0  0  0  0  0  0  0  0
   17.3975   -4.1072   -4.5891 N   0  0  0  0  0  0  0  0  0  0  0  0
   18.0354   -4.4426   -5.8591 C   0  0  0  0  0  3  0  0  0  0  0  0
   17.0072   -5.0875   -6.7479 C   0  0  1  0  0  0  0  0  0  0  0  0
   17.1217   -6.5841   -6.8047 C   0  0  0  0  0  0  0  0  0  0  0  0
   15.6945   -4.8048   -6.3323 O   0  0  0  0  0  0  0  0  0  0  0  0
   14.8877   -5.1155   -7.4394 C   0  0  1  0  0  0  0  0  0  0  0  0
   13.6631   -5.6115   -7.0216 O   0  0  0  0  0  0  0  0  0  0  0  0
   13.2812   -4.9180   -5.8810 C   0  0  0  0  0  2  0  0  0  0  0  0
   14.7688   -3.9726   -8.4055 C   0  0  0  0  0  0  0  0  0  0  0  0
   15.3978   -2.8153   -7.9832 O   0  0  0  0  0  0  0  0  0  0  0  0
   16.7677   -2.9791   -7.9054 C   0  0  2  0  0  0  0  0  0  0  0  0
   17.4811   -2.1332   -8.7336 O   0  0  0  0  0  0  0  0  0  0  0  0
   17.1246   -4.4441   -8.1225 C   0  0  1  0  0  0  0  0  0  0  0  0
   18.3900   -4.5717   -8.6628 O   0  0  0  0  0  0  0  0  0  0  0  0
  2  1  1  1
  2  3  1  0
  3  4  1  0
  4  5  1  6
  4  6  1  0
  6  7  1  6
  6  8  1  0
  8  9  1  1
  8 10  1  0
 10 11  1  1
 11 12  1  0
 12 13  1  0
 13 14  1  6
 13 15  1  0
 15 16  1  0
 16 17  1  1
 17 18  1  0
 16 19  1  0
 19 20  1  0
 20 21  1  0
 21 22  1  6
 21 23  1  0
 23 24  1  1
 10  2  1  0
 23 13  1  0
M  RAD  2  12   2  18   3
M  END
>  <docking_score>  (2) 
-4.4500000000000002

$$$$

     RDKit          3D

 24 25  0  0  0  0  0  0  0  0999 V2000
   17.9282   -1.5501   -2.5075 C   0  0  0  0  0  0  0  0  0  0  0  0
   17.2459   -2.5753   -3.3901 C   0  0  1  0  0  0  0  0  0  0  0  0
   16.0292   -2.0187   -4.0725 C   0  0  0  0  0  0  0  0  0  0  0  0
   16.3289   -1.0830   -5.1991 C   0  0  2  0  0  0  0  0  0  0  0  0
   15.1708   -0.9606   -5.9722 O   0  0  0  0  0  0  0  0  0  0  0  0
   17.4290   -1.5355   -6.1114 C   0  0  2  0  0  0  0  0  0  0  0  0
   17.0437   -2.6799   -6.8107 O   0  0  0  0  0  0  0  0  0  0  0  0
   18.6345   -1.9463   -5.2701 C   0  0  1  0  0  0  0  0  0  0  0  0
   18.8974   -0.8436   -4.4397 O   0  0  0  0  0  0  0  0  0  0  0  0
   18.1501   -3.1243   -4.4545 C   0  0  1  0  0  0  0  0  0  0  0  0
   19.2003   -3.9649   -3.9699 N   0  0  0  0  0  0  0  0  0  0  0  0
   19.2825   -5.1088   -4.8737 C   0  0  0  0  0  3  0  0  0  0  0  0
   18.3204   -6.1606   -4.3927 C   0  0  1  0  0  0  0  0  0  0  0  0
   18.0039   -6.0550   -2.9282 C   0  0  0  0  0  0  0  0  0  0  0  0
   17.0902   -6.1038   -5.0704 O   0  0  0  0  0  0  0  0  0  0  0  0
   16.4776   -7.3421   -4.8162 C   0  0  1  0  0  0  0  0  0  0  0  0
   15.1028   -7.1929   -4.7291 O   0  0  0  0  0  0  0  0  0  0  0  0
   14.7416   -6.0705   -5.4622 C   0  0  0  0  0  2  0  0  0  0  0  0
   16.9007   -8.4054   -5.7879 C   0  0  0  0  0  0  0  0  0  0  0  0
   17.7365   -7.9468   -6.7900 O   0  0  0  0  0  0  0  0  0  0  0  0
   18.9516   -7.5235   -6.2865 C   0  0  2  0  0  0  0  0  0  0  0  0
   20.0367   -8.2246   -6.7779 O   0  0  0  0  0  0  0  0  0  0  0  0
   18.9042   -7.5166   -4.7639 C   0  0  1  0  0  0  0  0  0  0  0  0
   20.1613   -7.7189   -4.2273 O   0  0  0  0  0  0  0  0  0  0  0  0
  2  1  1  6
  2  3  1  0
  3  4  1  0
  4  5  1  6
  4  6  1  0
  6  7  1  1
  6  8  1  0
  8  9  1  1
  8 10  1  0
 10 11  1  1
 11 12  1  0
 12 13  1  0
 13 14  1  1
 13 15  1  0
 15 16  1  0
 16 17  1  6
 17 18  1  0
 16 19  1  0
 19 20  1  0
 20 21  1  0
 21 22  1  1
 21 23  1  0
 23 24  1  1
 10  2  1  0
 23 13  1  0
M  RAD  2  12   2  18   3
M  END
>  <docking_score>  (3) 
-4.0060000000000002

$$$$
