
     RDKit          3D

 24 25  0  0  0  0  0  0  0  0999 V2000
   16.7479   -1.8205   -1.9933 C   0  0  0  0  0  0  0  0  0  0  0  0
   17.9914   -1.5378   -2.7871 C   0  0  1  0  0  0  0  0  0  0  0  0
   19.2343   -1.4737   -1.8719 C   0  0  0  0  0  0  0  0  0  0  0  0
   20.3849   -1.0128   -2.7164 C   0  0  2  0  0  0  0  0  0  0  0  0
   20.5437    0.3792   -2.5859 O   0  0  0  0  0  0  0  0  0  0  0  0
   20.2267   -1.2752   -4.1898 C   0  0  2  0  0  0  0  0  0  0  0  0
   19.4114   -0.3090   -4.8084 O   0  0  0  0  0  0  0  0  0  0  0  0
   19.5805   -2.6013   -4.4562 C   0  0  1  0  0  0  0  0  0  0  0  0
   20.3041   -3.6869   -3.9263 O   0  0  0  0  0  0  0  0  0  0  0  0
   18.2582   -2.6079   -3.7541 C   0  0  1  0  0  0  0  0  0  0  0  0
   17.9432   -3.9458   -3.4166 N   0  0  0  0  0  0  0  0  0  0  0  0
   16.6542   -4.2853   -4.0428 C   0  0  1  0  0  0  0  0  0  0  0  0
   16.6603   -3.8697   -5.4797 C   0  0  1  0  0  0  0  0  0  0  0  0
   17.1242   -4.8010   -6.5159 C   0  0  0  0  0  0  0  0  0  0  0  0
   17.8206   -4.2602   -7.5845 O   0  0  0  0  0  0  0  0  0  0  0  0
   19.1343   -4.7364   -7.5047 C   0  0  0  0  0  2  0  0  0  0  0  0
   15.2609   -3.7062   -5.7193 O   0  0  0  0  0  0  0  0  0  0  0  0
   14.6424   -4.7877   -5.1108 C   0  0  1  0  0  0  0  0  0  0  0  0
   13.4295   -4.9565   -5.7856 O   0  0  0  0  0  0  0  0  0  0  0  0
   15.4988   -6.0499   -5.1202 C   0  0  2  0  0  0  0  0  0  0  0  0
   14.6472   -7.0753   -4.7394 O   0  0  0  0  0  0  0  0  0  0  0  0
   16.5743   -5.8421   -4.0241 C   0  0  1  0  0  0  0  0  0  0  0  0
   17.8226   -6.1957   -4.6290 O   0  0  0  0  0  0  0  0  0  0  0  0
   17.9372   -7.5071   -4.6234 O   0  0  0  0  0  0  0  0  0  0  0  0
  2  1  1  1
  2  3  1  0
  3  4  1  0
  4  5  1  6
  4  6  1  0
  6  7  1  1
  6  8  1  0
  8  9  1  1
  8 10  1  0
 10 11  1  1
 12 11  1  6
 12 13  1  0
 13 14  1  6
 14 15  1  0
 15 16  1  0
 13 17  1  0
 17 18  1  0
 18 19  1  6
 18 20  1  0
 20 21  1  1
 20 22  1  0
 22 23  1  6
 23 24  1  0
 10  2  1  0
 22 12  1  0
M  RAD  1  16   3
M  END
>  <docking_score>  (1) 
-4.3970000000000002

$$$$

     RDKit          3D

 24 25  0  0  0  0  0  0  0  0999 V2000
   20.2045   -6.9947   -4.3386 C   0  0  0  0  0  0  0  0  0  0  0  0
   19.2914   -7.1175   -5.5249 C   0  0  1  0  0  0  0  0  0  0  0  0
   18.4809   -8.4315   -5.4706 C   0  0  0  0  0  0  0  0  0  0  0  0
   17.7413   -8.5517   -6.7700 C   0  0  2  0  0  0  0  0  0  0  0  0
   18.4769   -9.3513   -7.6642 O   0  0  0  0  0  0  0  0  0  0  0  0
   17.5046   -7.2463   -7.4804 C   0  0  2  0  0  0  0  0  0  0  0  0
   18.6437   -6.8234   -8.1907 O   0  0  0  0  0  0  0  0  0  0  0  0
   17.1726   -6.1406   -6.5243 C   0  0  1  0  0  0  0  0  0  0  0  0
   16.0210   -6.3991   -5.7563 O   0  0  0  0  0  0  0  0  0  0  0  0
   18.3021   -6.0348   -5.5473 C   0  0  1  0  0  0  0  0  0  0  0  0
   17.7861   -5.5379   -4.3266 N   0  0  0  0  0  0  0  0  0  0  0  0
   18.2587   -4.1532   -4.1589 C   0  0  1  0  0  0  0  0  0  0  0  0
   17.3897   -3.2197   -4.9403 C   0  0  1  0  0  0  0  0  0  0  0  0
   16.2000   -2.6237   -4.3190 C   0  0  0  0  0  0  0  0  0  0  0  0
   15.5638   -1.6105   -5.0175 O   0  0  0  0  0  0  0  0  0  0  0  0
   14.1870   -1.8415   -4.9177 C   0  0  0  0  0  2  0  0  0  0  0  0
   18.2887   -2.1297   -5.1547 O   0  0  0  0  0  0  0  0  0  0  0  0
   18.9421   -1.9332   -3.9476 C   0  0  1  0  0  0  0  0  0  0  0  0
   19.3585   -0.5985   -3.9577 O   0  0  0  0  0  0  0  0  0  0  0  0
   18.0764   -2.2678   -2.7372 C   0  0  2  0  0  0  0  0  0  0  0  0
   18.7619   -1.7622   -1.6434 O   0  0  0  0  0  0  0  0  0  0  0  0
   18.0438   -3.8147   -2.6524 C   0  0  1  0  0  0  0  0  0  0  0  0
   16.6676   -4.1679   -2.4777 O   0  0  0  0  0  0  0  0  0  0  0  0
   16.3020   -3.8468   -1.2545 O   0  0  0  0  0  0  0  0  0  0  0  0
  2  1  1  1
  2  3  1  0
  3  4  1  0
  4  5  1  6
  4  6  1  0
  6  7  1  1
  6  8  1  0
  8  9  1  1
  8 10  1  0
 10 11  1  1
 12 11  1  1
 12 13  1  0
 13 14  1  1
 14 15  1  0
 15 16  1  0
 13 17  1  0
 17 18  1  0
 18 19  1  1
 18 20  1  0
 20 21  1  1
 20 22  1  0
 22 23  1  6
 23 24  1  0
 10  2  1  0
 22 12  1  0
M  RAD  1  16   3
M  END
>  <docking_score>  (2) 
-3.879

$$$$

     RDKit          3D

 24 25  0  0  0  0  0  0  0  0999 V2000
   17.3814   -9.2927   -5.8553 C   0  0  0  0  0  0  0  0  0  0  0  0
   18.6608   -8.7269   -6.4023 C   0  0  1  0  0  0  0  0  0  0  0  0
   18.8735   -9.1500   -7.8727 C   0  0  0  0  0  0  0  0  0  0  0  0
   20.2460   -8.6956   -8.2720 C   0  0  2  0  0  0  0  0  0  0  0  0
   21.1624   -9.7513   -8.1117 O   0  0  0  0  0  0  0  0  0  0  0  0
   20.7884   -7.5497   -7.4609 C   0  0  2  0  0  0  0  0  0  0  0  0
   21.3119   -7.9832   -6.2285 O   0  0  0  0  0  0  0  0  0  0  0  0
   19.7270   -6.5430   -7.1343 C   0  0  1  0  0  0  0  0  0  0  0  0
   19.1249   -5.9819   -8.2770 O   0  0  0  0  0  0  0  0  0  0  0  0
   18.6338   -7.2604   -6.4051 C   0  0  1  0  0  0  0  0  0  0  0  0
   17.4154   -6.5870   -6.6606 N   0  0  0  0  0  0  0  0  0  0  0  0
   17.2951   -5.4768   -5.7004 C   0  0  1  0  0  0  0  0  0  0  0  0
   16.4673   -4.3796   -6.2906 C   0  0  1  0  0  0  0  0  0  0  0  0
   15.0111   -4.3700   -6.1019 C   0  0  0  0  0  0  0  0  0  0  0  0
   14.2299   -4.1722   -7.2288 O   0  0  0  0  0  0  0  0  0  0  0  0
   13.5437   -5.3678   -7.4708 C   0  0  0  0  0  2  0  0  0  0  0  0
   16.9498   -3.2526   -5.5562 O   0  0  0  0  0  0  0  0  0  0  0  0
   17.0560   -3.6742   -4.2396 C   0  0  1  0  0  0  0  0  0  0  0  0
   16.9625   -2.5146   -3.4641 O   0  0  0  0  0  0  0  0  0  0  0  0
   16.0116   -4.7190   -3.8598 C   0  0  2  0  0  0  0  0  0  0  0  0
   16.0764   -4.8189   -2.4786 O   0  0  0  0  0  0  0  0  0  0  0  0
   16.4908   -6.0493   -4.4938 C   0  0  1  0  0  0  0  0  0  0  0  0
   15.3473   -6.6020   -5.1541 O   0  0  0  0  0  0  0  0  0  0  0  0
   14.5954   -7.2074   -4.2591 O   0  0  0  0  0  0  0  0  0  0  0  0
  2  1  1  6
  2  3  1  0
  3  4  1  0
  4  5  1  1
  4  6  1  0
  6  7  1  1
  6  8  1  0
  8  9  1  6
  8 10  1  0
 10 11  1  6
 12 11  1  6
 12 13  1  0
 13 14  1  1
 14 15  1  0
 15 16  1  0
 13 17  1  0
 17 18  1  0
 18 19  1  1
 18 20  1  0
 20 21  1  1
 20 22  1  0
 22 23  1  6
 23 24  1  0
 10  2  1  0
 22 12  1  0
M  RAD  1  16   3
M  END
>  <docking_score>  (3) 
-3.8599999999999999

$$$$
