
     RDKit          3D

 18 17  0  0  0  0  0  0  0  0999 V2000
   18.3322   -1.7326   -5.9422 C   0  0  0  0  0  0  0  0  0  0  0  0
   17.8743   -2.1971   -7.2627 C   0  0  0  0  0  0  0  0  0  0  0  0
   16.6849   -2.7533   -7.4639 C   0  0  0  0  0  0  0  0  0  0  0  0
   15.7908   -2.9022   -6.2791 C   0  0  0  0  0  0  0  0  0  0  0  0
   14.7367   -3.9487   -6.6627 C   0  0  0  0  0  0  0  0  0  0  0  0
   15.0795   -1.6077   -5.9551 C   0  0  0  0  0  0  0  0  0  0  0  0
   16.5148   -3.4393   -5.1602 N   0  0  0  0  0  0  0  0  0  0  0  0
   15.9554   -4.0151   -4.0157 C   0  0  0  0  0  0  0  0  0  0  0  0
   16.1474   -3.4740   -2.8318 C   0  0  0  0  0  0  0  0  0  0  0  0
   16.9528   -2.2665   -2.7407 C   0  0  0  0  0  0  0  0  0  0  0  0
   18.1168   -2.3290   -2.1662 C   0  0  0  0  0  0  0  0  0  0  0  0
   18.6899   -3.5402   -1.5939 C   0  0  0  0  0  0  0  0  0  0  0  0
   19.6992   -4.1785   -2.1095 C   0  0  0  0  0  0  0  0  0  0  0  0
   20.3811   -3.7486   -3.3357 C   0  0  0  0  0  0  0  0  0  0  0  0
   21.3820   -2.3161   -3.2508 Cl  0  0  0  0  0  0  0  0  0  0  0  0
   20.2604   -4.3982   -4.4683 C   0  0  0  0  0  0  0  0  0  0  0  0
   19.4324   -5.5853   -4.5432 C   0  0  0  0  0  0  0  0  0  0  0  0
   19.9404   -6.7568   -4.9174 C   0  0  0  0  0  0  0  0  0  0  0  0
  1  2  1  0
  2  3  2  3
  3  4  1  0
  4  5  1  0
  4  6  1  0
  4  7  1  0
  7  8  1  0
  8  9  2  3
  9 10  1  0
 10 11  2  3
 11 12  1  0
 12 13  2  3
 13 14  1  0
 14 15  1  0
 14 16  2  3
 16 17  1  0
 17 18  2  0
M  END
>  <docking_score>  (1) 
-3.5089999999999999

$$$$

     RDKit          3D

 18 17  0  0  0  0  0  0  0  0999 V2000
   18.4801   -7.9673   -5.2851 C   0  0  0  0  0  0  0  0  0  0  0  0
   19.6104   -8.2761   -4.3928 C   0  0  0  0  0  0  0  0  0  0  0  0
   20.1786   -7.3724   -3.6021 C   0  0  0  0  0  0  0  0  0  0  0  0
   19.6258   -5.9874   -3.6397 C   0  0  0  0  0  0  0  0  0  0  0  0
   20.4688   -5.1596   -2.6611 C   0  0  0  0  0  0  0  0  0  0  0  0
   18.1871   -5.9518   -3.1756 C   0  0  0  0  0  0  0  0  0  0  0  0
   19.8105   -5.4014   -4.9386 N   0  0  0  0  0  0  0  0  0  0  0  0
   20.0702   -4.0540   -5.2060 C   0  0  0  0  0  0  0  0  0  0  0  0
   19.2669   -3.3585   -5.9822 C   0  0  0  0  0  0  0  0  0  0  0  0
   18.1057   -4.0214   -6.5543 C   0  0  0  0  0  0  0  0  0  0  0  0
   17.0406   -3.3198   -6.8035 C   0  0  0  0  0  0  0  0  0  0  0  0
   16.9164   -1.8906   -6.5488 C   0  0  0  0  0  0  0  0  0  0  0  0
   16.2159   -1.3856   -5.5761 C   0  0  0  0  0  0  0  0  0  0  0  0
   15.4651   -2.2036   -4.6167 C   0  0  0  0  0  0  0  0  0  0  0  0
   14.0028   -2.9820   -5.1800 Cl  0  0  0  0  0  0  0  0  0  0  0  0
   15.8555   -2.3614   -3.3750 C   0  0  0  0  0  0  0  0  0  0  0  0
   17.0660   -1.7186   -2.9042 C   0  0  0  0  0  0  0  0  0  0  0  0
   18.0246   -2.4149   -2.2984 C   0  0  0  0  0  0  0  0  0  0  0  0
  1  2  1  0
  2  3  2  3
  3  4  1  0
  4  5  1  0
  4  6  1  0
  4  7  1  0
  7  8  1  0
  8  9  2  3
  9 10  1  0
 10 11  2  3
 11 12  1  0
 12 13  2  3
 13 14  1  0
 14 15  1  0
 14 16  2  3
 16 17  1  0
 17 18  2  0
M  END
>  <docking_score>  (2) 
-3.4700000000000002

$$$$

     RDKit          3D

 18 17  0  0  0  0  0  0  0  0999 V2000
   18.7122   -2.0035   -2.2230 C   0  0  0  0  0  0  0  0  0  0  0  0
   19.4537   -2.9671   -3.0541 C   0  0  0  0  0  0  0  0  0  0  0  0
   19.7778   -2.7340   -4.3211 C   0  0  0  0  0  0  0  0  0  0  0  0
   19.3586   -1.4265   -4.9043 C   0  0  0  0  0  0  0  0  0  0  0  0
   19.7574   -1.4669   -6.3851 C   0  0  0  0  0  0  0  0  0  0  0  0
   20.0801   -0.2704   -4.2491 C   0  0  0  0  0  0  0  0  0  0  0  0
   17.9288   -1.2885   -4.8674 N   0  0  0  0  0  0  0  0  0  0  0  0
   17.0736   -1.2688   -5.9731 C   0  0  0  0  0  0  0  0  0  0  0  0
   15.9104   -1.8824   -5.9308 C   0  0  0  0  0  0  0  0  0  0  0  0
   15.5353   -2.5799   -4.7110 C   0  0  0  0  0  0  0  0  0  0  0  0
   14.7965   -3.6454   -4.7978 C   0  0  0  0  0  0  0  0  0  0  0  0
   14.3041   -4.2077   -6.0485 C   0  0  0  0  0  0  0  0  0  0  0  0
   14.5565   -5.4196   -6.4479 C   0  0  0  0  0  0  0  0  0  0  0  0
   15.3723   -6.3663   -5.6786 C   0  0  0  0  0  0  0  0  0  0  0  0
   14.5969   -7.2345   -4.3723 Cl  0  0  0  0  0  0  0  0  0  0  0  0
   16.6403   -6.5720   -5.9412 C   0  0  0  0  0  0  0  0  0  0  0  0
   17.2866   -5.8551   -7.0223 C   0  0  0  0  0  0  0  0  0  0  0  0
   18.2004   -4.9190   -6.7784 C   0  0  0  0  0  0  0  0  0  0  0  0
  1  2  1  0
  2  3  2  3
  3  4  1  0
  4  5  1  0
  4  6  1  0
  4  7  1  0
  7  8  1  0
  8  9  2  3
  9 10  1  0
 10 11  2  3
 11 12  1  0
 12 13  2  3
 13 14  1  0
 14 15  1  0
 14 16  2  3
 16 17  1  0
 17 18  2  0
M  END
>  <docking_score>  (3) 
-3.4009999999999998

$$$$
