
     RDKit          3D

 23 22  0  0  0  0  0  0  0  0999 V2000
   13.7181   -5.4117   -5.4302 C   0  0  0  0  0  0  0  0  0  0  0  0
   14.4937   -5.7644   -6.6666 C   0  0  0  0  0  0  0  0  0  0  0  0
   13.9980   -5.0170   -7.8877 C   0  0  0  0  0  0  0  0  0  0  0  0
   15.9519   -5.5540   -6.5004 C   0  0  0  0  0  0  0  0  0  0  0  0
   16.8525   -6.5573   -7.0420 C   0  0  0  0  0  0  0  0  0  0  0  0
   18.2537   -6.6481   -6.7387 C   0  0  0  0  0  0  0  0  0  0  0  0
   18.7622   -7.8422   -5.9914 C   0  0  1  0  0  0  0  0  0  0  0  0
   20.3098   -7.6283   -5.8825 C   0  0  0  0  0  0  0  0  0  0  0  0
   18.2951   -7.8301   -4.5184 C   0  0  0  0  0  3  0  0  0  0  0  0
   19.1682   -6.8515   -3.7728 C   0  0  0  0  0  0  0  0  0  0  0  0
   18.3014   -5.7792   -3.1694 C   0  0  0  0  0  0  0  0  0  0  0  0
   19.0883   -4.4518   -3.2759 C   0  0  2  0  0  0  0  0  0  0  0  0
   19.7286   -4.2014   -1.9068 C   0  0  0  0  0  0  0  0  0  0  0  0
   18.1030   -3.4052   -3.6614 C   0  0  0  0  0  3  0  0  0  0  0  0
   17.8709   -3.2440   -5.0687 C   0  0  0  0  0  0  0  0  0  0  0  0
   18.4162   -2.1812   -5.8670 C   0  0  1  0  0  0  0  0  0  0  0  0
   19.3893   -2.4857   -6.9535 C   0  0  0  0  0  0  0  0  0  0  0  0
   17.3068   -1.2404   -6.3280 C   0  0  0  0  0  0  0  0  0  0  0  0
   16.2419   -2.0878   -6.9944 C   0  0  0  0  0  3  0  0  0  0  0  0
   14.9719   -1.7350   -6.5729 O   0  0  0  0  0  0  0  0  0  0  0  0
   15.0474   -0.7720   -5.5801 C   0  0  0  0  0  0  0  0  0  0  0  0
   13.7123   -0.2819   -5.2157 C   0  0  0  0  0  0  0  0  0  0  0  0
   13.4708    0.0004   -4.0605 O   0  0  0  0  0  0  0  0  0  0  0  0
  1  2  1  0
  2  3  1  0
  2  4  1  0
  4  5  1  0
  5  6  1  0
  6  7  1  0
  7  8  1  1
  7  9  1  0
  9 10  1  0
 10 11  1  0
 11 12  1  0
 12 13  1  1
 12 14  1  0
 14 15  1  0
 15 16  1  0
 16 17  1  6
 16 18  1  0
 18 19  1  0
 19 20  1  0
 20 21  1  0
 21 22  1  0
 22 23  2  0
M  RAD  3   9   2  14   2  19   2
M  END
>  <docking_score>  (1) 
-3.1880000000000002

$$$$

     RDKit          3D

 23 22  0  0  0  0  0  0  0  0999 V2000
   18.9118   -5.7924   -5.4824 C   0  0  0  0  0  0  0  0  0  0  0  0
   18.1844   -7.0018   -5.9953 C   0  0  0  0  0  0  0  0  0  0  0  0
   18.3840   -8.2117   -5.1054 C   0  0  0  0  0  0  0  0  0  0  0  0
   16.7367   -6.7509   -6.1932 C   0  0  0  0  0  0  0  0  0  0  0  0
   16.3456   -5.7192   -7.1385 C   0  0  0  0  0  0  0  0  0  0  0  0
   17.1289   -4.5563   -7.4511 C   0  0  0  0  0  0  0  0  0  0  0  0
   16.4597   -3.3740   -8.0812 C   0  0  1  0  0  0  0  0  0  0  0  0
   15.4719   -2.8344   -6.9923 C   0  0  0  0  0  0  0  0  0  0  0  0
   17.4479   -2.2025   -8.2796 C   0  0  0  0  0  3  0  0  0  0  0  0
   17.8499   -1.7105   -6.9113 C   0  0  0  0  0  0  0  0  0  0  0  0
   19.3141   -1.9869   -6.6996 C   0  0  0  0  0  0  0  0  0  0  0  0
   20.0080   -0.6172   -6.5123 C   0  0  2  0  0  0  0  0  0  0  0  0
   21.1256   -0.5365   -7.5570 C   0  0  0  0  0  0  0  0  0  0  0  0
   20.5121   -0.5858   -5.1124 C   0  0  0  0  0  3  0  0  0  0  0  0
   19.5433   -0.8477   -4.0862 C   0  0  0  0  0  0  0  0  0  0  0  0
   19.8662   -1.2575   -2.7475 C   0  0  1  0  0  0  0  0  0  0  0  0
   20.8406   -0.4715   -1.9395 C   0  0  0  0  0  0  0  0  0  0  0  0
   18.5939   -1.5808   -1.9696 C   0  0  0  0  0  0  0  0  0  0  0  0
   17.4926   -1.8214   -2.9822 C   0  0  0  0  0  3  0  0  0  0  0  0
   17.6831   -3.0065   -3.6707 O   0  0  0  0  0  0  0  0  0  0  0  0
   16.7656   -3.9561   -3.2521 C   0  0  0  0  0  0  0  0  0  0  0  0
   16.7304   -4.0480   -1.7872 C   0  0  0  0  0  0  0  0  0  0  0  0
   16.0141   -4.8699   -1.2541 O   0  0  0  0  0  0  0  0  0  0  0  0
  1  2  1  0
  2  3  1  0
  2  4  1  0
  4  5  1  0
  5  6  1  0
  6  7  1  0
  7  8  1  1
  7  9  1  0
  9 10  1  0
 10 11  1  0
 11 12  1  0
 12 13  1  6
 12 14  1  0
 14 15  1  0
 15 16  1  0
 16 17  1  1
 16 18  1  0
 18 19  1  0
 19 20  1  0
 20 21  1  0
 21 22  1  0
 22 23  2  0
M  RAD  3   9   2  14   2  19   2
M  END
>  <docking_score>  (2) 
-1.9930000000000001

$$$$
