
     RDKit          3D

 25 24  0  0  0  0  0  0  0  0999 V2000
   12.4134   13.1771   14.5547 C   0  0  0  0  0  0  0  0  0  0  0  0
   13.1583   14.4794   14.3980 C   0  0  0  0  0  0  0  0  0  0  0  0
   13.0319   15.3624   15.6120 C   0  0  0  0  0  0  0  0  0  0  0  0
   12.7429   15.2058   13.1380 C   0  0  0  0  0  0  0  0  0  0  0  0
   11.2591   15.3778   13.0455 C   0  0  0  0  0  0  0  0  0  0  0  0
   10.8647   15.9444   11.6987 C   0  0  0  0  0  0  0  0  0  0  0  0
    9.9338   14.9986   10.9338 C   0  0  1  0  0  0  0  0  0  0  0  0
   10.0978   13.6372   11.5890 C   0  0  0  0  0  0  0  0  0  0  0  0
    8.4876   15.4235   11.0851 C   0  0  0  0  0  3  0  0  0  0  0  0
    7.8518   14.5386   12.1425 C   0  0  0  0  0  0  0  0  0  0  0  0
    6.4407   15.0279   12.4132 C   0  0  0  0  0  0  0  0  0  0  0  0
    5.4416   13.9661   12.0808 C   0  0  1  0  0  0  0  0  0  0  0  0
    4.0247   14.4364   11.9928 C   0  0  0  0  0  0  0  0  0  0  0  0
    5.8589   13.0619   10.9567 C   0  0  0  0  0  0  0  0  0  0  0  0
    5.5634   11.6581   11.3315 C   0  0  1  0  0  0  0  0  0  0  0  0
    5.8708   11.3809   12.7661 C   0  0  0  0  0  0  0  0  0  0  0  0
    4.4984   10.9263   10.6950 C   0  0  0  0  0  0  0  0  0  0  0  0
    4.3882   10.6579    9.2797 C   0  0  0  0  0  0  0  0  0  0  0  0
    3.4878    9.6099    8.7878 C   0  0  2  0  0  0  0  0  0  0  0  0
    3.8713    8.2280    9.2218 C   0  0  0  0  0  0  0  0  0  0  0  0
    3.3825    9.6008    7.2797 C   0  0  0  0  0  0  0  0  0  0  0  0
    4.4868    8.7850    6.6464 C   0  0  0  0  0  0  0  0  0  0  0  0
    5.2896    9.6564    5.7625 C   0  0  0  0  0  0  0  0  0  0  0  0
    4.6439   10.7600    5.1968 O   0  0  0  0  0  0  0  0  0  0  0  0
    6.4810    9.4558    5.5069 O   0  0  0  0  0  0  0  0  0  0  0  0
  1  2  1  0
  2  3  1  0
  2  4  1  0
  4  5  1  0
  5  6  1  0
  6  7  1  0
  7  8  1  1
  7  9  1  0
  9 10  1  0
 10 11  1  0
 11 12  1  0
 12 13  1  6
 12 14  1  0
 14 15  1  0
 15 16  1  1
 15 17  1  0
 17 18  1  0
 18 19  1  0
 19 20  1  6
 19 21  1  0
 21 22  1  0
 22 23  1  0
 23 24  1  0
 23 25  2  0
M  RAD  1   9   2
M  END
>  <docking_score>  (1) 
-2.8130000000000002

$$$$

     RDKit          3D

 25 24  0  0  0  0  0  0  0  0999 V2000
   14.9665   -1.0840   -3.3052 C   0  0  0  0  0  0  0  0  0  0  0  0
   14.8515   -1.7257   -4.6655 C   0  0  0  0  0  0  0  0  0  0  0  0
   15.1564   -3.2006   -4.6318 C   0  0  0  0  0  0  0  0  0  0  0  0
   15.7015   -1.0068   -5.6895 C   0  0  0  0  0  0  0  0  0  0  0  0
   15.6264   -1.6479   -7.0397 C   0  0  0  0  0  0  0  0  0  0  0  0
   16.2069   -3.0452   -7.0065 C   0  0  0  0  0  0  0  0  0  0  0  0
   17.0909   -3.3234   -8.2260 C   0  0  1  0  0  0  0  0  0  0  0  0
   17.9986   -2.1124   -8.3640 C   0  0  0  0  0  0  0  0  0  0  0  0
   17.9618   -4.5416   -7.9963 C   0  0  0  0  0  3  0  0  0  0  0  0
   17.3111   -5.7175   -8.7030 C   0  0  0  0  0  0  0  0  0  0  0  0
   16.3707   -6.4156   -7.7374 C   0  0  0  0  0  0  0  0  0  0  0  0
   17.0236   -6.5978   -6.4045 C   0  0  1  0  0  0  0  0  0  0  0  0
   16.2725   -6.0190   -5.2481 C   0  0  0  0  0  0  0  0  0  0  0  0
   17.5485   -7.9840   -6.1633 C   0  0  0  0  0  0  0  0  0  0  0  0
   18.9999   -8.0098   -6.4656 C   0  0  1  0  0  0  0  0  0  0  0  0
   19.2958   -8.7102   -7.7506 C   0  0  0  0  0  0  0  0  0  0  0  0
   19.8677   -6.9416   -6.0405 C   0  0  0  0  0  0  0  0  0  0  0  0
   19.6245   -6.0481   -4.9316 C   0  0  0  0  0  0  0  0  0  0  0  0
   20.0314   -4.6410   -5.0051 C   0  0  2  0  0  0  0  0  0  0  0  0
   21.3647   -4.3618   -4.3811 C   0  0  0  0  0  0  0  0  0  0  0  0
   19.0245   -3.7150   -4.3615 C   0  0  0  0  0  0  0  0  0  0  0  0
   19.3030   -3.5225   -2.8879 C   0  0  0  0  0  0  0  0  0  0  0  0
   18.9830   -2.1296   -2.5103 C   0  0  0  0  0  0  0  0  0  0  0  0
   19.9541   -1.1583   -2.7719 O   0  0  0  0  0  0  0  0  0  0  0  0
   17.9175   -1.7937   -1.9842 O   0  0  0  0  0  0  0  0  0  0  0  0
  1  2  1  0
  2  3  1  0
  2  4  1  0
  4  5  1  0
  5  6  1  0
  6  7  1  0
  7  8  1  1
  7  9  1  0
  9 10  1  0
 10 11  1  0
 11 12  1  0
 12 13  1  1
 12 14  1  0
 14 15  1  0
 15 16  1  6
 15 17  1  0
 17 18  1  0
 18 19  1  0
 19 20  1  1
 19 21  1  0
 21 22  1  0
 22 23  1  0
 23 24  1  0
 23 25  2  0
M  RAD  1   9   2
M  END
>  <docking_score>  (2) 
-2.677

$$$$

     RDKit          3D

 25 24  0  0  0  0  0  0  0  0999 V2000
   15.5632   -1.0464   -0.8853 C   0  0  0  0  0  0  0  0  0  0  0  0
   16.5843   -1.8275   -1.6744 C   0  0  0  0  0  0  0  0  0  0  0  0
   17.9337   -1.1577   -1.6881 C   0  0  0  0  0  0  0  0  0  0  0  0
   16.0954   -2.1188   -3.0757 C   0  0  0  0  0  0  0  0  0  0  0  0
   16.6713   -3.3860   -3.6255 C   0  0  0  0  0  0  0  0  0  0  0  0
   16.0819   -4.5933   -2.9288 C   0  0  0  0  0  0  0  0  0  0  0  0
   16.8967   -5.8615   -3.2008 C   0  0  1  0  0  0  0  0  0  0  0  0
   16.4419   -6.3614   -4.5620 C   0  0  0  0  0  0  0  0  0  0  0  0
   18.3762   -5.5466   -3.2843 C   0  0  0  0  0  3  0  0  0  0  0  0
   19.0006   -6.5101   -4.2778 C   0  0  0  0  0  0  0  0  0  0  0  0
   20.2997   -5.9168   -4.7921 C   0  0  0  0  0  0  0  0  0  0  0  0
   20.1253   -5.3896   -6.1806 C   0  0  1  0  0  0  0  0  0  0  0  0
   20.0563   -6.4335   -7.2492 C   0  0  0  0  0  0  0  0  0  0  0  0
   19.0817   -4.3168   -6.3024 C   0  0  0  0  0  0  0  0  0  0  0  0
   18.4788   -4.3814   -7.6555 C   0  0  1  0  0  0  0  0  0  0  0  0
   19.4972   -4.2167   -8.7350 C   0  0  0  0  0  0  0  0  0  0  0  0
   17.3166   -5.1919   -7.9146 C   0  0  0  0  0  0  0  0  0  0  0  0
   16.0940   -4.7387   -8.5367 C   0  0  0  0  0  0  0  0  0  0  0  0
   15.6283   -3.3608   -8.3484 C   0  0  2  0  0  0  0  0  0  0  0  0
   16.6393   -2.3217   -8.7271 C   0  0  0  0  0  0  0  0  0  0  0  0
   15.2036   -3.0850   -6.9239 C   0  0  0  0  0  0  0  0  0  0  0  0
   15.5827   -1.6879   -6.4873 C   0  0  0  0  0  0  0  0  0  0  0  0
   14.3927   -1.0140   -5.9263 C   0  0  0  0  0  0  0  0  0  0  0  0
   13.6337   -1.7294   -4.9951 O   0  0  0  0  0  0  0  0  0  0  0  0
   14.0466    0.1297   -6.2382 O   0  0  0  0  0  0  0  0  0  0  0  0
  1  2  1  0
  2  3  1  0
  2  4  1  0
  4  5  1  0
  5  6  1  0
  6  7  1  0
  7  8  1  6
  7  9  1  0
  9 10  1  0
 10 11  1  0
 11 12  1  0
 12 13  1  6
 12 14  1  0
 14 15  1  0
 15 16  1  6
 15 17  1  0
 17 18  1  0
 18 19  1  0
 19 20  1  1
 19 21  1  0
 21 22  1  0
 22 23  1  0
 23 24  1  0
 23 25  2  0
M  RAD  1   9   2
M  END
>  <docking_score>  (3) 
-2.1349999999999998

$$$$
