
     RDKit          3D

 26 29  0  0  0  0  0  0  0  0999 V2000
   17.6383   -4.0925   -1.9689 C   0  0  0  0  0  0  0  0  0  0  0  0
   18.8467   -3.3093   -1.5468 C   0  0  0  0  0  3  0  0  0  0  0  0
   20.1394   -3.9053   -2.0904 C   0  0  0  0  0  0  0  0  0  0  0  0
   21.2710   -3.0331   -1.5957 C   0  0  0  0  0  0  0  0  0  0  0  0
   21.1457   -1.6046   -2.0146 C   0  0  1  0  0  0  0  0  0  0  0  0
   21.2717   -1.4449   -3.3936 O   0  0  0  0  0  0  0  0  0  0  0  0
   19.8180   -1.0705   -1.5375 C   0  0  0  0  0  0  0  0  0  0  0  0
   18.7345   -1.9186   -2.1477 C   0  0  2  0  0  0  0  0  0  0  0  0
   17.3659   -1.3975   -1.8527 C   0  0  0  0  0  0  0  0  0  0  0  0
   16.4462   -2.1059   -2.6149 O   0  0  0  0  0  0  0  0  0  0  0  0
   16.9533   -3.3184   -3.0771 C   0  0  2  0  0  0  0  0  0  0  0  0
   15.8236   -4.0853   -3.6871 C   0  0  0  0  0  0  0  0  0  0  0  0
   15.8755   -4.0316   -5.2065 C   0  0  0  0  0  0  0  0  0  0  0  0
   15.4299   -5.3137   -5.8310 C   0  0  2  0  0  0  0  0  0  0  0  0
   15.1115   -6.4019   -4.8570 C   0  0  0  0  0  0  0  0  0  0  0  0
   16.3986   -5.7593   -6.8837 C   0  0  2  0  0  0  0  0  0  0  0  0
   17.2572   -6.8787   -6.3507 C   0  0  0  0  0  0  0  0  0  0  0  0
   18.6071   -6.3010   -6.0191 C   0  0  1  0  0  0  0  0  0  0  0  0
   18.9551   -6.3699   -4.5693 C   0  0  0  0  0  0  0  0  0  0  0  0
   19.6726   -7.6755   -4.4315 C   0  0  0  0  0  3  0  0  0  0  0  0
   19.8454   -8.1544   -5.8551 C   0  0  0  0  0  0  0  0  0  0  0  0
   19.6119   -7.0256   -6.6374 O   0  0  0  0  0  0  0  0  0  0  0  0
   17.4067   -4.3179   -7.3545 S   0  0  0  0  0  0  0  0  0  0  0  0
   16.2415   -3.4754   -8.4920 C   0  0  0  0  0  0  0  0  0  0  0  0
   14.9990   -4.8089   -8.7045 S   0  0  0  0  0  0  0  0  0  0  0  0
   15.7722   -6.1829   -8.0381 O   0  0  0  0  0  0  0  0  0  0  0  0
  1  2  1  0
  2  3  1  0
  3  4  1  0
  4  5  1  0
  5  6  1  6
  5  7  1  0
  8  7  1  1
  8  9  1  0
  9 10  1  0
 10 11  1  0
 11 12  1  1
 12 13  1  0
 13 14  1  0
 14 15  1  1
 14 16  1  0
 16 17  1  1
 18 17  1  1
 18 19  1  0
 19 20  1  0
 20 21  1  0
 21 22  1  0
 16 23  1  0
 23 24  1  0
 24 25  1  0
 25 26  1  0
 11  1  1  0
  8  2  1  0
 26 16  1  0
 22 18  1  0
M  RAD  2   2   2  20   2
M  END
>  <docking_score>  (1) 
-4.7590000000000003

$$$$

     RDKit          3D

 26 29  0  0  0  0  0  0  0  0999 V2000
    5.0921   10.2849    6.4120 C   0  0  0  0  0  0  0  0  0  0  0  0
    5.8171   10.4725    5.1116 C   0  0  0  0  0  3  0  0  0  0  0  0
    5.1214    9.7639    3.9558 C   0  0  0  0  0  0  0  0  0  0  0  0
    5.9455   10.0263    2.7157 C   0  0  0  0  0  0  0  0  0  0  0  0
    6.1075   11.4791    2.4074 C   0  0  1  0  0  0  0  0  0  0  0  0
    4.9011   12.0829    2.0562 O   0  0  0  0  0  0  0  0  0  0  0  0
    6.7170   12.1671    3.6036 C   0  0  0  0  0  0  0  0  0  0  0  0
    5.7970   11.9538    4.7756 C   0  0  2  0  0  0  0  0  0  0  0  0
    6.2324   12.7081    5.9893 C   0  0  0  0  0  0  0  0  0  0  0  0
    5.2307   12.6256    6.9476 O   0  0  0  0  0  0  0  0  0  0  0  0
    4.3503   11.5715    6.7139 C   0  0  2  0  0  0  0  0  0  0  0  0
    3.4606   11.4435    7.9092 C   0  0  0  0  0  0  0  0  0  0  0  0
    4.2689   11.2289    9.1798 C   0  0  0  0  0  0  0  0  0  0  0  0
    3.4206   11.3077   10.4072 C   0  0  2  0  0  0  0  0  0  0  0  0
    2.4798   12.4688   10.4391 C   0  0  0  0  0  0  0  0  0  0  0  0
    4.2625   11.2250   11.6438 C   0  0  2  0  0  0  0  0  0  0  0  0
    4.9924   12.5275   11.8564 C   0  0  0  0  0  0  0  0  0  0  0  0
    6.4130   12.1994   12.2305 C   0  0  1  0  0  0  0  0  0  0  0  0
    7.4330   13.0118   11.5043 C   0  0  0  0  0  0  0  0  0  0  0  0
    7.6545   14.1936   12.3944 C   0  0  0  0  0  3  0  0  0  0  0  0
    6.8834   13.8594   13.6513 C   0  0  0  0  0  0  0  0  0  0  0  0
    6.6446   12.4897   13.5644 O   0  0  0  0  0  0  0  0  0  0  0  0
    5.4262    9.8409   11.4300 S   0  0  0  0  0  0  0  0  0  0  0  0
    4.3231    8.4346   11.8388 C   0  0  0  0  0  0  0  0  0  0  0  0
    2.9046    9.3529   12.5542 S   0  0  0  0  0  0  0  0  0  0  0  0
    3.5234   10.9338   12.7722 O   0  0  0  0  0  0  0  0  0  0  0  0
  1  2  1  0
  2  3  1  0
  3  4  1  0
  4  5  1  0
  5  6  1  1
  5  7  1  0
  8  7  1  6
  8  9  1  0
  9 10  1  0
 10 11  1  0
 11 12  1  1
 12 13  1  0
 13 14  1  0
 14 15  1  1
 14 16  1  0
 16 17  1  1
 18 17  1  6
 18 19  1  0
 19 20  1  0
 20 21  1  0
 21 22  1  0
 16 23  1  0
 23 24  1  0
 24 25  1  0
 25 26  1  0
 11  1  1  0
  8  2  1  0
 26 16  1  0
 22 18  1  0
M  RAD  2   2   2  20   2
M  END
>  <docking_score>  (2) 
-3.2290000000000001

$$$$

     RDKit          3D

 26 29  0  0  0  0  0  0  0  0999 V2000
    2.8375    9.4974    5.7944 C   0  0  0  0  0  0  0  0  0  0  0  0
    2.4808    8.4132    4.8203 C   0  0  0  0  0  3  0  0  0  0  0  0
    2.8209    8.7930    3.3843 C   0  0  0  0  0  0  0  0  0  0  0  0
    2.4141    7.6282    2.5105 C   0  0  0  0  0  0  0  0  0  0  0  0
    3.0881    6.3467    2.8783 C   0  0  1  0  0  0  0  0  0  0  0  0
    4.4618    6.3857    2.6448 O   0  0  0  0  0  0  0  0  0  0  0  0
    2.8045    6.0447    4.3289 C   0  0  0  0  0  0  0  0  0  0  0  0
    3.3259    7.1943    5.1488 C   0  0  2  0  0  0  0  0  0  0  0  0
    3.2216    6.9429    6.6177 C   0  0  0  0  0  0  0  0  0  0  0  0
    3.9059    7.9466    7.2906 O   0  0  0  0  0  0  0  0  0  0  0  0
    4.1095    9.0778    6.5033 C   0  0  2  0  0  0  0  0  0  0  0  0
    4.6482   10.1591    7.3847 C   0  0  0  0  0  0  0  0  0  0  0  0
    4.0482   11.5114    7.0308 C   0  0  0  0  0  0  0  0  0  0  0  0
    4.9816   12.3459    6.2156 C   0  0  2  0  0  0  0  0  0  0  0  0
    5.8218   13.2941    7.0090 C   0  0  0  0  0  0  0  0  0  0  0  0
    4.2503   13.0309    5.1016 C   0  0  2  0  0  0  0  0  0  0  0  0
    4.4520   12.2739    3.8129 C   0  0  0  0  0  0  0  0  0  0  0  0
    5.8841   11.8122    3.7735 C   0  0  1  0  0  0  0  0  0  0  0  0
    6.0469   10.3763    3.4002 C   0  0  0  0  0  0  0  0  0  0  0  0
    6.1965   10.4044    1.9119 C   0  0  0  0  0  3  0  0  0  0  0  0
    6.3016   11.8754    1.5787 C   0  0  0  0  0  0  0  0  0  0  0  0
    6.5881   12.4925    2.7944 O   0  0  0  0  0  0  0  0  0  0  0  0
    4.8936   14.7300    4.9792 S   0  0  0  0  0  0  0  0  0  0  0  0
    3.9650   15.5189    6.3493 C   0  0  0  0  0  0  0  0  0  0  0  0
    2.7368   14.1988    6.6899 S   0  0  0  0  0  0  0  0  0  0  0  0
    2.8975   13.1497    5.3470 O   0  0  0  0  0  0  0  0  0  0  0  0
  1  2  1  0
  2  3  1  0
  3  4  1  0
  4  5  1  0
  5  6  1  1
  5  7  1  0
  8  7  1  6
  8  9  1  0
  9 10  1  0
 10 11  1  0
 11 12  1  1
 12 13  1  0
 13 14  1  0
 14 15  1  1
 14 16  1  0
 16 17  1  6
 18 17  1  6
 18 19  1  0
 19 20  1  0
 20 21  1  0
 21 22  1  0
 16 23  1  0
 23 24  1  0
 24 25  1  0
 25 26  1  0
 11  1  1  0
  8  2  1  0
 26 16  1  0
 22 18  1  0
M  RAD  2   2   2  20   2
M  END
>  <docking_score>  (3) 
-2.6339999999999999

$$$$
