
     RDKit          3D

 25 27  0  0  0  0  0  0  0  0999 V2000
   14.9522   -2.3061   -8.2168 O   0  0  0  0  0  0  0  0  0  0  0  0
   15.8165   -2.8642   -7.4753 C   0  0  0  0  0  0  0  0  0  0  0  0
   17.1712   -2.6212   -7.6112 N   0  0  0  0  0  0  0  0  0  0  0  0
   18.2009   -3.1422   -8.4224 C   0  0  0  0  0  0  0  0  0  0  0  0
   18.7410   -4.4030   -7.8777 C   0  0  0  0  0  0  0  0  0  0  0  0
   18.1861   -4.8609   -6.7190 C   0  0  0  0  0  0  0  0  0  0  0  0
   18.6303   -6.0363   -6.1629 C   0  0  0  0  0  0  0  0  0  0  0  0
   19.6377   -6.7117   -6.8156 C   0  0  0  0  0  0  0  0  0  0  0  0
   20.2557   -8.2328   -6.1735 Cl  0  0  0  0  0  0  0  0  0  0  0  0
   20.2150   -6.2764   -7.9801 C   0  0  0  0  0  0  0  0  0  0  0  0
   19.7457   -5.0763   -8.5280 C   0  0  0  0  0  0  0  0  0  0  0  0
   15.3350   -3.7923   -6.4452 C   0  0  0  0  0  0  0  0  0  0  0  0
   15.6178   -3.8069   -5.2052 C   0  0  0  0  0  0  0  0  0  0  0  0
   16.0361   -3.6981   -3.8020 S   0  0  2  0  0  0  0  0  0  0  0  0
   16.2473   -2.0894   -2.9147 C   0  0  0  0  0  0  0  0  0  0  0  0
   17.4735   -1.9427   -2.2876 C   0  0  0  0  0  0  0  0  0  0  0  0
   18.4724   -2.7161   -2.1367 C   0  0  0  0  0  0  0  0  0  0  0  0
   19.6661   -2.1901   -1.3673 C   0  0  0  0  0  0  0  0  0  0  0  0
   18.5191   -4.0235   -2.6879 C   0  0  0  0  0  0  0  0  0  0  0  0
   17.5711   -4.6011   -3.4162 C   0  0  0  0  0  0  0  0  0  0  0  0
   17.6611   -5.9382   -3.8897 C   0  0  0  0  0  0  0  0  0  0  0  0
   18.0528   -6.5835   -4.9261 C   0  0  0  0  0  0  0  0  0  0  0  0
   17.9621   -8.0177   -4.9926 O   0  0  0  0  0  0  0  0  0  0  0  0
   16.7564   -8.6343   -5.3812 C   0  0  0  0  0  0  0  0  0  0  0  0
   16.8874  -10.0611   -5.5765 N   0  0  0  0  0  0  0  0  0  0  0  0
  1  2  2  0
  2  3  1  0
  3  4  1  0
  4  5  1  0
  5  6  1  0
  6  7  2  0
  7  8  1  0
  8  9  1  0
  8 10  2  0
 10 11  1  0
  2 12  1  0
 12 13  2  3
 13 14  1  0
 14 15  1  6
 15 16  1  0
 16 17  2  0
 17 18  1  0
 17 19  1  0
 19 20  2  0
 20 21  1  0
 21 22  2  3
 22 23  1  0
 23 24  1  0
 24 25  1  0
 11  5  2  0
 22  7  1  0
 20 14  1  0
M  END
>  <docking_score>  (1) 
-4.9889999999999999

$$$$

     RDKit          3D

 25 27  0  0  0  0  0  0  0  0999 V2000
   15.5802   -1.2702   -1.3016 O   0  0  0  0  0  0  0  0  0  0  0  0
   16.1916   -1.6286   -2.3532 C   0  0  0  0  0  0  0  0  0  0  0  0
   15.7184   -1.3314   -3.6183 N   0  0  0  0  0  0  0  0  0  0  0  0
   14.7952   -1.9275   -4.5027 C   0  0  0  0  0  0  0  0  0  0  0  0
   15.4062   -3.0314   -5.2684 C   0  0  0  0  0  0  0  0  0  0  0  0
   16.7188   -3.3027   -5.0165 C   0  0  0  0  0  0  0  0  0  0  0  0
   17.3481   -4.3267   -5.6826 C   0  0  0  0  0  0  0  0  0  0  0  0
   16.6076   -5.0466   -6.5940 C   0  0  0  0  0  0  0  0  0  0  0  0
   17.3378   -6.3833   -7.4819 Cl  0  0  0  0  0  0  0  0  0  0  0  0
   15.2882   -4.7971   -6.8686 C   0  0  0  0  0  0  0  0  0  0  0  0
   14.6683   -3.7490   -6.1774 C   0  0  0  0  0  0  0  0  0  0  0  0
   17.4421   -2.3803   -2.1931 C   0  0  0  0  0  0  0  0  0  0  0  0
   18.5725   -2.1501   -2.7288 C   0  0  0  0  0  0  0  0  0  0  0  0
   19.8091   -1.7605   -3.4179 S   0  0  2  0  0  0  0  0  0  0  0  0
   20.3485   -0.0067   -3.6475 C   0  0  0  0  0  0  0  0  0  0  0  0
   20.6528    0.3279   -4.9566 C   0  0  0  0  0  0  0  0  0  0  0  0
   20.7024   -0.3416   -6.0374 C   0  0  0  0  0  0  0  0  0  0  0  0
   21.0881    0.3891   -7.3066 C   0  0  0  0  0  0  0  0  0  0  0  0
   20.3785   -1.7224   -6.0987 C   0  0  0  0  0  0  0  0  0  0  0  0
   19.9861   -2.4810   -5.0823 C   0  0  0  0  0  0  0  0  0  0  0  0
   19.7320   -3.8741   -5.2050 C   0  0  0  0  0  0  0  0  0  0  0  0
   18.7556   -4.6728   -5.4341 C   0  0  0  0  0  0  0  0  0  0  0  0
   18.9489   -6.0977   -5.4758 O   0  0  0  0  0  0  0  0  0  0  0  0
   19.3992   -6.7855   -4.3316 C   0  0  0  0  0  0  0  0  0  0  0  0
   18.5882   -6.5303   -3.1618 N   0  0  0  0  0  0  0  0  0  0  0  0
  1  2  2  0
  2  3  1  0
  3  4  1  0
  4  5  1  0
  5  6  1  0
  6  7  2  0
  7  8  1  0
  8  9  1  0
  8 10  2  0
 10 11  1  0
  2 12  1  0
 12 13  2  3
 13 14  1  0
 14 15  1  6
 15 16  1  0
 16 17  2  0
 17 18  1  0
 17 19  1  0
 19 20  2  0
 20 21  1  0
 21 22  2  3
 22 23  1  0
 23 24  1  0
 24 25  1  0
 11  5  2  0
 22  7  1  0
 20 14  1  0
M  END
>  <docking_score>  (2) 
-4.6790000000000003

$$$$

     RDKit          3D

 25 27  0  0  0  0  0  0  0  0999 V2000
   13.4369   -0.1798   -4.5035 O   0  0  0  0  0  0  0  0  0  0  0  0
   14.4500   -0.9424   -4.5090 C   0  0  0  0  0  0  0  0  0  0  0  0
   14.8262   -1.6760   -3.3985 N   0  0  0  0  0  0  0  0  0  0  0  0
   15.5994   -1.4165   -2.2476 C   0  0  0  0  0  0  0  0  0  0  0  0
   17.0436   -1.5603   -2.5154 C   0  0  0  0  0  0  0  0  0  0  0  0
   17.4030   -1.9065   -3.7847 C   0  0  0  0  0  0  0  0  0  0  0  0
   18.7312   -2.0437   -4.1087 C   0  0  0  0  0  0  0  0  0  0  0  0
   19.6580   -1.8210   -3.1145 C   0  0  0  0  0  0  0  0  0  0  0  0
   21.3824   -1.9655   -3.4515 Cl  0  0  0  0  0  0  0  0  0  0  0  0
   19.3274   -1.4730   -1.8306 C   0  0  0  0  0  0  0  0  0  0  0  0
   17.9678   -1.3388   -1.5242 C   0  0  0  0  0  0  0  0  0  0  0  0
   15.2297   -1.0327   -5.7493 C   0  0  0  0  0  0  0  0  0  0  0  0
   15.5960   -2.0784   -6.3739 C   0  0  0  0  0  0  0  0  0  0  0  0
   15.9455   -3.3683   -6.9820 S   0  0  2  0  0  0  0  0  0  0  0  0
   14.7980   -4.8170   -7.0492 C   0  0  0  0  0  0  0  0  0  0  0  0
   15.3388   -5.9939   -6.5585 C   0  0  0  0  0  0  0  0  0  0  0  0
   16.4935   -6.3077   -6.1260 C   0  0  0  0  0  0  0  0  0  0  0  0
   16.7144   -7.7334   -5.6655 C   0  0  0  0  0  0  0  0  0  0  0  0
   17.5558   -5.3710   -6.0288 C   0  0  0  0  0  0  0  0  0  0  0  0
   17.4986   -4.0850   -6.3537 C   0  0  0  0  0  0  0  0  0  0  0  0
   18.6205   -3.2152   -6.2840 C   0  0  0  0  0  0  0  0  0  0  0  0
   19.1726   -2.3961   -5.4666 C   0  0  0  0  0  0  0  0  0  0  0  0
   20.3715   -1.6829   -5.8179 O   0  0  0  0  0  0  0  0  0  0  0  0
   20.2920   -0.4741   -6.5372 C   0  0  0  0  0  0  0  0  0  0  0  0
   19.6117    0.5742   -5.8094 N   0  0  0  0  0  0  0  0  0  0  0  0
  1  2  2  0
  2  3  1  0
  3  4  1  0
  4  5  1  0
  5  6  1  0
  6  7  2  0
  7  8  1  0
  8  9  1  0
  8 10  2  0
 10 11  1  0
  2 12  1  0
 12 13  2  3
 13 14  1  0
 14 15  1  1
 15 16  1  0
 16 17  2  0
 17 18  1  0
 17 19  1  0
 19 20  2  0
 20 21  1  0
 21 22  2  3
 22 23  1  0
 23 24  1  0
 24 25  1  0
 11  5  2  0
 22  7  1  0
 20 14  1  0
M  END
>  <docking_score>  (3) 
-4.6349999999999998

$$$$
