
     RDKit          3D

 23 24  0  0  0  0  0  0  0  0999 V2000
   15.7050   -2.7211   -7.1668 C   0  0  0  0  0  0  0  0  0  0  0  0
   16.4099   -1.5682   -6.4616 C   0  0  1  0  0  0  0  0  0  0  0  0
   15.3116   -0.6977   -5.8646 C   0  0  0  0  0  0  0  0  0  0  0  0
   14.3138   -1.6516   -5.2349 C   0  0  2  0  0  0  0  0  0  0  0  0
   13.2483   -0.8911   -4.7873 O   0  0  0  0  0  0  0  0  0  0  0  0
   15.0040   -2.3421   -4.0903 C   0  0  2  0  0  0  0  0  0  0  0  0
   15.3938   -1.4086   -3.1264 O   0  0  0  0  0  0  0  0  0  0  0  0
   16.2318   -3.0729   -4.5574 C   0  0  1  0  0  0  0  0  0  0  0  0
   15.9408   -4.1879   -5.3289 O   0  0  0  0  0  0  0  0  0  0  0  0
   17.1717   -2.1427   -5.2743 C   0  0  1  0  0  0  0  0  0  0  0  0
   18.3282   -2.8461   -5.7648 N   0  0  0  0  0  0  0  0  0  0  0  0
   19.5247   -2.3370   -5.1298 C   0  0  1  0  0  0  0  0  0  0  0  0
   19.1342   -1.1118   -4.3487 C   0  0  0  0  0  0  0  0  0  0  0  0
   20.2479   -0.7272   -3.3951 C   0  0  1  0  0  0  0  0  0  0  0  0
   20.3848    0.6664   -3.4091 O   0  0  0  0  0  0  0  0  0  0  0  0
   19.8435   -1.2393   -2.0275 C   0  0  1  0  0  0  0  0  0  0  0  0
   18.4610   -1.1675   -1.8546 O   0  0  0  0  0  0  0  0  0  0  0  0
   20.2650   -2.6921   -1.9382 C   0  0  1  0  0  0  0  0  0  0  0  0
   20.1287   -3.1445   -0.6375 O   0  0  0  0  0  0  0  0  0  0  0  0
   19.4937   -3.5323   -2.9208 C   0  0  2  0  0  0  0  0  0  0  0  0
   19.5182   -4.8598   -2.4864 O   0  0  0  0  0  0  0  0  0  0  0  0
   20.1471   -3.4108   -4.2829 C   0  0  1  0  0  0  0  0  0  0  0  0
   20.0014   -4.6391   -4.9404 O   0  0  0  0  0  0  0  0  0  0  0  0
  2  1  1  1
  2  3  1  0
  3  4  1  0
  4  5  1  1
  4  6  1  0
  6  7  1  1
  6  8  1  0
  8  9  1  6
  8 10  1  0
 10 11  1  6
 12 11  1  1
 12 13  1  0
 13 14  1  0
 14 15  1  1
 14 16  1  0
 16 17  1  6
 16 18  1  0
 18 19  1  1
 18 20  1  0
 20 21  1  1
 20 22  1  0
 22 23  1  6
 10  2  1  0
 22 12  1  0
M  END
>  <docking_score>  (1) 
-5.3869999999999996

$$$$

     RDKit          3D

 23 24  0  0  0  0  0  0  0  0999 V2000
   15.3773   -2.4468   -7.9716 C   0  0  0  0  0  0  0  0  0  0  0  0
   16.5352   -2.2689   -6.9965 C   0  0  1  0  0  0  0  0  0  0  0  0
   16.1619   -1.0950   -6.1003 C   0  0  0  0  0  0  0  0  0  0  0  0
   14.7051   -1.2965   -5.7273 C   0  0  2  0  0  0  0  0  0  0  0  0
   14.3097   -0.1827   -5.0084 O   0  0  0  0  0  0  0  0  0  0  0  0
   14.6184   -2.5414   -4.8869 C   0  0  2  0  0  0  0  0  0  0  0  0
   15.3590   -2.3847   -3.7124 O   0  0  0  0  0  0  0  0  0  0  0  0
   15.1588   -3.7341   -5.6252 C   0  0  1  0  0  0  0  0  0  0  0  0
   14.3491   -4.1356   -6.6771 O   0  0  0  0  0  0  0  0  0  0  0  0
   16.5698   -3.4887   -6.0849 C   0  0  1  0  0  0  0  0  0  0  0  0
   17.0769   -4.6095   -6.8330 N   0  0  0  0  0  0  0  0  0  0  0  0
   18.4365   -4.8996   -6.4313 C   0  0  1  0  0  0  0  0  0  0  0  0
   18.6252   -4.3459   -5.0451 C   0  0  0  0  0  0  0  0  0  0  0  0
   19.8947   -4.9026   -4.4320 C   0  0  1  0  0  0  0  0  0  0  0  0
   20.5488   -3.8704   -3.7480 O   0  0  0  0  0  0  0  0  0  0  0  0
   19.4717   -6.0176   -3.4971 C   0  0  1  0  0  0  0  0  0  0  0  0
   18.2466   -5.7288   -2.8954 O   0  0  0  0  0  0  0  0  0  0  0  0
   19.3162   -7.2769   -4.3254 C   0  0  1  0  0  0  0  0  0  0  0  0
   19.1553   -8.3720   -3.4947 O   0  0  0  0  0  0  0  0  0  0  0  0
   18.1851   -7.1323   -5.3083 C   0  0  2  0  0  0  0  0  0  0  0  0
   17.7486   -8.4076   -5.6749 O   0  0  0  0  0  0  0  0  0  0  0  0
   18.6891   -6.3780   -6.5223 C   0  0  1  0  0  0  0  0  0  0  0  0
   18.0195   -6.8773   -7.6469 O   0  0  0  0  0  0  0  0  0  0  0  0
  2  1  1  6
  2  3  1  0
  3  4  1  0
  4  5  1  1
  4  6  1  0
  6  7  1  1
  6  8  1  0
  8  9  1  6
  8 10  1  0
 10 11  1  6
 12 11  1  1
 12 13  1  0
 13 14  1  0
 14 15  1  1
 14 16  1  0
 16 17  1  6
 16 18  1  0
 18 19  1  1
 18 20  1  0
 20 21  1  6
 20 22  1  0
 22 23  1  6
 10  2  1  0
 22 12  1  0
M  END
>  <docking_score>  (2) 
-4.8899999999999997

$$$$

     RDKit          3D

 23 24  0  0  0  0  0  0  0  0999 V2000
    5.4871   11.9842    5.6754 C   0  0  0  0  0  0  0  0  0  0  0  0
    4.5806   11.4576    4.5690 C   0  0  1  0  0  0  0  0  0  0  0  0
    4.7655   12.3957    3.3831 C   0  0  0  0  0  0  0  0  0  0  0  0
    6.2582   12.6432    3.2707 C   0  0  2  0  0  0  0  0  0  0  0  0
    6.4422   13.5840    2.2733 O   0  0  0  0  0  0  0  0  0  0  0  0
    6.9102   11.3366    2.9086 C   0  0  2  0  0  0  0  0  0  0  0  0
    6.4408   10.8883    1.6712 O   0  0  0  0  0  0  0  0  0  0  0  0
    6.6121   10.2782    3.9335 C   0  0  1  0  0  0  0  0  0  0  0  0
    7.2482   10.5000    5.1457 O   0  0  0  0  0  0  0  0  0  0  0  0
    5.1287   10.1100    4.1178 C   0  0  1  0  0  0  0  0  0  0  0  0
    4.8370    9.1304    5.1318 N   0  0  0  0  0  0  0  0  0  0  0  0
    3.6463    8.3886    4.7770 C   0  0  1  0  0  0  0  0  0  0  0  0
    4.0865    7.1611    4.0266 C   0  0  0  0  0  0  0  0  0  0  0  0
    2.9388    6.1765    3.9229 C   0  0  1  0  0  0  0  0  0  0  0  0
    2.9397    5.6253    2.6355 O   0  0  0  0  0  0  0  0  0  0  0  0
    3.1742    5.1229    4.9863 C   0  0  1  0  0  0  0  0  0  0  0  0
    4.5375    4.8836    5.1610 O   0  0  0  0  0  0  0  0  0  0  0  0
    2.6074    5.6508    6.2888 C   0  0  1  0  0  0  0  0  0  0  0  0
    2.5883    4.6441    7.2382 O   0  0  0  0  0  0  0  0  0  0  0  0
    3.3737    6.8609    6.7521 C   0  0  2  0  0  0  0  0  0  0  0  0
    3.1835    7.0078    8.1283 O   0  0  0  0  0  0  0  0  0  0  0  0
    2.8530    8.0782    6.0147 C   0  0  1  0  0  0  0  0  0  0  0  0
    2.9336    9.1740    6.8836 O   0  0  0  0  0  0  0  0  0  0  0  0
  2  1  1  1
  2  3  1  0
  3  4  1  0
  4  5  1  6
  4  6  1  0
  6  7  1  6
  6  8  1  0
  8  9  1  1
  8 10  1  0
 10 11  1  1
 12 11  1  1
 12 13  1  0
 13 14  1  0
 14 15  1  6
 14 16  1  0
 16 17  1  1
 16 18  1  0
 18 19  1  1
 18 20  1  0
 20 21  1  1
 20 22  1  0
 22 23  1  1
 10  2  1  0
 22 12  1  0
M  END
>  <docking_score>  (3) 
-4.7779999999999996

$$$$
