
     RDKit          3D

 29 30  0  0  0  0  0  0  0  0999 V2000
   17.9841   -1.3849   -5.9014 O   0  0  0  0  0  0  0  0  0  0  0  0
   18.4128   -2.5540   -6.0615 C   0  0  0  0  0  0  0  0  0  0  0  0
   17.6377   -3.7764   -5.7337 C   0  0  1  0  0  0  0  0  0  0  0  0
   16.8641   -4.1681   -6.9721 C   0  0  0  0  0  0  0  0  0  0  0  0
   16.0678   -5.3834   -6.8030 C   0  0  0  0  0  0  0  0  0  0  0  0
   14.8171   -5.4348   -6.5169 C   0  0  0  0  0  0  0  0  0  0  0  0
   14.3554   -6.1808   -5.5852 C   0  0  0  0  0  0  0  0  0  0  0  0
   15.0528   -6.5894   -4.5815 C   0  0  0  0  0  0  0  0  0  0  0  0
   16.4354   -6.3558   -4.4126 N   0  0  0  0  0  0  0  0  0  0  0  0
   17.4608   -7.2032   -4.9888 C   0  0  1  0  0  0  0  0  0  0  0  0
   16.9217   -8.5436   -5.4118 C   0  0  0  0  0  0  0  0  0  0  0  0
   18.0890   -6.4450   -6.1246 C   0  0  2  0  0  0  0  0  0  0  0  0
   18.9914   -7.4951   -7.2268 Cl  0  0  0  0  0  0  0  0  0  0  0  0
   18.9700   -5.1069   -5.5686 S   0  0  0  0  0  0  0  0  0  0  0  0
   20.4684   -4.8094   -5.5431 N   0  0  0  0  0  0  0  0  0  0  0  0
   19.7407   -5.1043   -3.9954 C   0  0  0  0  0  0  0  0  0  0  0  0
   20.4143   -5.0754   -2.8957 C   0  0  0  0  0  0  0  0  0  0  0  0
   19.7113   -2.7255   -6.5850 N   0  0  0  0  0  0  0  0  0  0  0  0
   20.4857   -1.5787   -6.9118 C   0  0  0  0  0  0  0  0  0  0  0  0
   21.2408   -1.0433   -5.9888 C   0  0  0  0  0  0  0  0  0  0  0  0
   21.3148   -1.5847   -4.6338 C   0  0  0  0  0  0  0  0  0  0  0  0
   20.9840   -0.8721   -3.5703 C   0  0  0  0  0  0  0  0  0  0  0  0
   20.5452    0.4615   -3.7798 N   0  0  0  0  0  0  0  0  0  0  0  0
   21.2069    1.5826   -3.2188 C   0  0  0  0  0  0  0  0  0  0  0  0
   21.3817    2.7076   -3.8739 C   0  0  0  0  0  0  0  0  0  0  0  0
   20.7126    2.8256   -5.6538 Br  0  0  0  0  0  0  0  0  0  0  0  0
   21.0746   -1.4558   -2.2424 C   0  0  0  0  0  0  0  0  0  0  0  0
   20.0189   -1.8741   -1.5871 C   0  0  0  0  0  0  0  0  0  0  0  0
   18.2766   -1.7484   -2.3291 Br  0  0  0  0  0  0  0  0  0  0  0  0
  1  2  2  0
  3  2  1  6
  3  4  1  0
  4  5  1  0
  5  6  2  0
  6  7  2  0
  7  8  2  0
  8  9  1  0
  9 10  1  0
 10 11  1  6
 10 12  1  0
 12 13  1  1
 12 14  1  0
 14 15  2  0
 15 16  1  0
 16 17  2  0
  2 18  1  0
 18 19  1  0
 19 20  2  3
 20 21  1  0
 21 22  2  3
 22 23  1  0
 23 24  1  0
 24 25  2  3
 25 26  1  0
 22 27  1  0
 27 28  2  3
 28 29  1  0
 14  3  1  0
 16 14  1  0
M  END
>  <docking_score>  (1) 
-4.4909999999999997

$$$$

     RDKit          3D

 29 30  0  0  0  0  0  0  0  0999 V2000
   18.1848   -2.7705   -5.9518 O   0  0  0  0  0  0  0  0  0  0  0  0
   18.1950   -3.7339   -5.1469 C   0  0  0  0  0  0  0  0  0  0  0  0
   18.9396   -4.9978   -5.3716 C   0  0  1  0  0  0  0  0  0  0  0  0
   18.0877   -6.1268   -4.8376 C   0  0  0  0  0  0  0  0  0  0  0  0
   18.6894   -7.4479   -5.0176 C   0  0  0  0  0  0  0  0  0  0  0  0
   19.3608   -8.0995   -4.1383 C   0  0  0  0  0  0  0  0  0  0  0  0
   20.4961   -8.6312   -4.3957 C   0  0  0  0  0  0  0  0  0  0  0  0
   21.2788   -8.2304   -5.3377 C   0  0  0  0  0  0  0  0  0  0  0  0
   20.9625   -7.2204   -6.2729 N   0  0  0  0  0  0  0  0  0  0  0  0
   20.2328   -7.4734   -7.4997 C   0  0  1  0  0  0  0  0  0  0  0  0
   20.2190   -8.9340   -7.8642 C   0  0  0  0  0  0  0  0  0  0  0  0
   18.8519   -6.9039   -7.3306 C   0  0  2  0  0  0  0  0  0  0  0  0
   17.7011   -7.5485   -8.5103 Cl  0  0  0  0  0  0  0  0  0  0  0  0
   18.8824   -5.2102   -7.2489 S   0  0  0  0  0  0  0  0  0  0  0  0
   18.3852   -4.1321   -8.2106 N   0  0  0  0  0  0  0  0  0  0  0  0
   20.1097   -4.2730   -8.0759 C   0  0  0  0  0  0  0  0  0  0  0  0
   20.9208   -3.5212   -8.7400 C   0  0  0  0  0  0  0  0  0  0  0  0
   17.4553   -3.6160   -3.9517 N   0  0  0  0  0  0  0  0  0  0  0  0
   16.7285   -2.4202   -3.6996 C   0  0  0  0  0  0  0  0  0  0  0  0
   17.0049   -1.7285   -2.6255 C   0  0  0  0  0  0  0  0  0  0  0  0
   18.0354   -2.1437   -1.6767 C   0  0  0  0  0  0  0  0  0  0  0  0
   19.3154   -1.8670   -1.8593 C   0  0  0  0  0  0  0  0  0  0  0  0
   19.6738   -1.1406   -3.0250 N   0  0  0  0  0  0  0  0  0  0  0  0
   20.3181    0.1210   -2.9735 C   0  0  0  0  0  0  0  0  0  0  0  0
   20.7086    0.7656   -4.0492 C   0  0  0  0  0  0  0  0  0  0  0  0
   20.3897   -0.0398   -5.7461 Br  0  0  0  0  0  0  0  0  0  0  0  0
   20.3032   -2.3020   -0.8862 C   0  0  0  0  0  0  0  0  0  0  0  0
   21.1666   -3.2551   -1.1419 C   0  0  0  0  0  0  0  0  0  0  0  0
   21.1925   -4.1468   -2.8170 Br  0  0  0  0  0  0  0  0  0  0  0  0
  1  2  2  0
  3  2  1  6
  3  4  1  0
  4  5  1  0
  5  6  2  0
  6  7  2  0
  7  8  2  0
  8  9  1  0
  9 10  1  0
 10 11  1  1
 10 12  1  0
 12 13  1  6
 12 14  1  0
 14 15  2  0
 15 16  1  0
 16 17  2  0
  2 18  1  0
 18 19  1  0
 19 20  2  3
 20 21  1  0
 21 22  2  3
 22 23  1  0
 23 24  1  0
 24 25  2  3
 25 26  1  0
 22 27  1  0
 27 28  2  3
 28 29  1  0
 14  3  1  0
 16 14  1  0
M  END
>  <docking_score>  (2) 
-3.6230000000000002

$$$$

     RDKit          3D

 29 30  0  0  0  0  0  0  0  0999 V2000
    3.5286   10.9529    8.4532 O   0  0  0  0  0  0  0  0  0  0  0  0
    3.6042   12.1259    8.0122 C   0  0  0  0  0  0  0  0  0  0  0  0
    4.2370   12.4896    6.7200 C   0  0  1  0  0  0  0  0  0  0  0  0
    5.5857   13.0977    7.0309 C   0  0  0  0  0  0  0  0  0  0  0  0
    6.3414   13.4828    5.8392 C   0  0  0  0  0  0  0  0  0  0  0  0
    6.3989   14.6588    5.3270 C   0  0  0  0  0  0  0  0  0  0  0  0
    6.2155   14.8745    4.0790 C   0  0  0  0  0  0  0  0  0  0  0  0
    5.5437   14.0914    3.3068 C   0  0  0  0  0  0  0  0  0  0  0  0
    4.9979   12.8487    3.6973 N   0  0  0  0  0  0  0  0  0  0  0  0
    5.7489   11.6089    3.6756 C   0  0  1  0  0  0  0  0  0  0  0  0
    6.9875   11.7071    2.8257 C   0  0  0  0  0  0  0  0  0  0  0  0
    6.0502   11.2373    5.1007 C   0  0  2  0  0  0  0  0  0  0  0  0
    7.3549   10.0490    5.2325 Cl  0  0  0  0  0  0  0  0  0  0  0  0
    4.6418   10.8138    5.9451 S   0  0  0  0  0  0  0  0  0  0  0  0
    4.1459    9.4797    6.5006 N   0  0  0  0  0  0  0  0  0  0  0  0
    3.2673   10.0910    5.1344 C   0  0  0  0  0  0  0  0  0  0  0  0
    2.2635    9.4657    4.6194 C   0  0  0  0  0  0  0  0  0  0  0  0
    3.0561   13.1695    8.7869 N   0  0  0  0  0  0  0  0  0  0  0  0
    2.4410   12.8615   10.0312 C   0  0  0  0  0  0  0  0  0  0  0  0
    3.0281   13.2399   11.1361 C   0  0  0  0  0  0  0  0  0  0  0  0
    4.2946   13.9683   11.1337 C   0  0  0  0  0  0  0  0  0  0  0  0
    5.4215   13.4255   11.5625 C   0  0  0  0  0  0  0  0  0  0  0  0
    5.3716   12.0882   12.0360 N   0  0  0  0  0  0  0  0  0  0  0  0
    5.9402   11.0020   11.3245 C   0  0  0  0  0  0  0  0  0  0  0  0
    5.3514    9.8325   11.2208 C   0  0  0  0  0  0  0  0  0  0  0  0
    3.6608    9.5980   12.0673 Br  0  0  0  0  0  0  0  0  0  0  0  0
    6.6564   14.1913   11.5400 C   0  0  0  0  0  0  0  0  0  0  0  0
    7.1241   14.7984   12.6039 C   0  0  0  0  0  0  0  0  0  0  0  0
    6.2162   14.7228   14.2687 Br  0  0  0  0  0  0  0  0  0  0  0  0
  1  2  2  0
  3  2  1  1
  3  4  1  0
  4  5  1  0
  5  6  2  0
  6  7  2  0
  7  8  2  0
  8  9  1  0
  9 10  1  0
 10 11  1  6
 10 12  1  0
 12 13  1  6
 12 14  1  0
 14 15  2  0
 15 16  1  0
 16 17  2  0
  2 18  1  0
 18 19  1  0
 19 20  2  3
 20 21  1  0
 21 22  2  3
 22 23  1  0
 23 24  1  0
 24 25  2  3
 25 26  1  0
 22 27  1  0
 27 28  2  3
 28 29  1  0
 14  3  1  0
 16 14  1  0
M  END
>  <docking_score>  (3) 
-3.2719999999999998

$$$$
