
     RDKit          3D

 17 16  0  0  0  0  0  0  0  0999 V2000
   15.7685   -0.5570   -5.7319 C   0  0  0  0  0  0  0  0  0  0  0  0
   14.4489   -1.2010   -5.4360 C   0  0  0  0  0  0  0  0  0  0  0  0
   13.6271   -0.4755   -4.4216 C   0  0  0  0  0  0  0  0  0  0  0  0
   14.5265   -2.6787   -5.2127 C   0  0  0  0  0  0  0  0  0  0  0  0
   15.7926   -3.2708   -5.7717 C   0  0  0  0  0  0  0  0  0  0  0  0
   15.6486   -4.7792   -5.8093 C   0  0  0  0  0  0  0  0  0  0  0  0
   15.6562   -5.3774   -4.4287 C   0  0  1  0  0  0  0  0  0  0  0  0
   14.8186   -6.6352   -4.3782 C   0  0  0  0  0  0  0  0  0  0  0  0
   17.0450   -5.7201   -3.9880 C   0  0  0  0  0  3  0  0  0  0  0  0
   17.4210   -5.0778   -2.6768 C   0  0  0  0  0  0  0  0  0  0  0  0
   16.4733   -3.9803   -2.2741 C   0  0  0  0  0  0  0  0  0  0  0  0
   17.1744   -2.6599   -2.0662 C   0  0  2  0  0  0  0  0  0  0  0  0
   16.0942   -1.5802   -2.0677 C   0  0  0  0  0  0  0  0  0  0  0  0
   18.1820   -2.3846   -3.1581 C   0  0  0  0  0  0  0  0  0  0  0  0
   19.4851   -2.0733   -2.5205 C   0  0  0  0  0  0  0  0  0  0  0  0
   19.5354   -1.0955   -1.4802 N   0  0  0  0  0  1  0  0  0  0  0  0
   20.5486   -2.6657   -2.8902 N   0  0  0  0  0  2  0  0  0  0  0  0
  1  2  1  0
  2  3  1  0
  2  4  1  0
  4  5  1  0
  5  6  1  0
  6  7  1  0
  7  8  1  6
  7  9  1  0
  9 10  1  0
 10 11  1  0
 11 12  1  0
 12 13  1  6
 12 14  1  0
 14 15  1  0
 15 16  1  0
 15 17  2  0
M  CHG  2  16   1  17  -1
M  RAD  2   9   2  16   2
M  END
>  <docking_score>  (1) 
-3.911

$$$$

     RDKit          3D

 17 16  0  0  0  0  0  0  0  0999 V2000
   14.2104   -0.9834   -4.8571 C   0  0  0  0  0  0  0  0  0  0  0  0
   14.6640   -2.1038   -5.7420 C   0  0  0  0  0  0  0  0  0  0  0  0
   14.1137   -3.4409   -5.3679 C   0  0  0  0  0  0  0  0  0  0  0  0
   16.1345   -2.1064   -6.0194 C   0  0  0  0  0  0  0  0  0  0  0  0
   16.9073   -1.3279   -4.9885 C   0  0  0  0  0  0  0  0  0  0  0  0
   18.3157   -1.8832   -4.9151 C   0  0  0  0  0  0  0  0  0  0  0  0
   18.8054   -1.9834   -3.4959 C   0  0  1  0  0  0  0  0  0  0  0  0
   19.6730   -0.7983   -3.1368 C   0  0  0  0  0  0  0  0  0  0  0  0
   17.6665   -2.0426   -2.5265 C   0  0  0  0  0  3  0  0  0  0  0  0
   17.4943   -3.4050   -1.9042 C   0  0  0  0  0  0  0  0  0  0  0  0
   16.4099   -4.2130   -2.5647 C   0  0  0  0  0  0  0  0  0  0  0  0
   16.9258   -5.5094   -3.1403 C   0  0  2  0  0  0  0  0  0  0  0  0
   18.4138   -5.5819   -2.8039 C   0  0  0  0  0  0  0  0  0  0  0  0
   16.7306   -5.5726   -4.6374 C   0  0  0  0  0  0  0  0  0  0  0  0
   16.0602   -6.8550   -4.9650 C   0  0  0  0  0  0  0  0  0  0  0  0
   16.8400   -7.9385   -5.4738 N   0  0  0  0  0  1  0  0  0  0  0  0
   14.8068   -6.9957   -4.7977 N   0  0  0  0  0  2  0  0  0  0  0  0
  1  2  1  0
  2  3  1  0
  2  4  1  0
  4  5  1  0
  5  6  1  0
  6  7  1  0
  7  8  1  1
  7  9  1  0
  9 10  1  0
 10 11  1  0
 11 12  1  0
 12 13  1  6
 12 14  1  0
 14 15  1  0
 15 16  1  0
 15 17  2  0
M  CHG  2  16   1  17  -1
M  RAD  2   9   2  16   2
M  END
>  <docking_score>  (2) 
-3.754

$$$$

     RDKit          3D

 17 16  0  0  0  0  0  0  0  0999 V2000
   13.8112   -5.6724   -6.7464 C   0  0  0  0  0  0  0  0  0  0  0  0
   15.1080   -5.6759   -5.9967 C   0  0  0  0  0  0  0  0  0  0  0  0
   15.3736   -6.9347   -5.2382 C   0  0  0  0  0  0  0  0  0  0  0  0
   15.3639   -4.4271   -5.2127 C   0  0  0  0  0  0  0  0  0  0  0  0
   16.4390   -3.5771   -5.8354 C   0  0  0  0  0  0  0  0  0  0  0  0
   15.8616   -2.2090   -6.1397 C   0  0  0  0  0  0  0  0  0  0  0  0
   15.9664   -1.2814   -4.9596 C   0  0  1  0  0  0  0  0  0  0  0  0
   14.6325   -1.1386   -4.2621 C   0  0  0  0  0  0  0  0  0  0  0  0
   16.9674   -1.7749   -3.9623 C   0  0  0  0  0  3  0  0  0  0  0  0
   16.3874   -1.9424   -2.5807 C   0  0  0  0  0  0  0  0  0  0  0  0
   16.7477   -3.2628   -1.9549 C   0  0  0  0  0  0  0  0  0  0  0  0
   18.0802   -3.7844   -2.4353 C   0  0  2  0  0  0  0  0  0  0  0  0
   17.9152   -5.2874   -2.6509 C   0  0  0  0  0  0  0  0  0  0  0  0
   19.1775   -3.5236   -1.4298 C   0  0  0  0  0  0  0  0  0  0  0  0
   19.9657   -2.3556   -1.8943 C   0  0  0  0  0  0  0  0  0  0  0  0
   20.8438   -2.5075   -3.0109 N   0  0  0  0  0  1  0  0  0  0  0  0
   19.8661   -1.2295   -1.3107 N   0  0  0  0  0  2  0  0  0  0  0  0
  1  2  1  0
  2  3  1  0
  2  4  1  0
  4  5  1  0
  5  6  1  0
  6  7  1  0
  7  8  1  1
  7  9  1  0
  9 10  1  0
 10 11  1  0
 11 12  1  0
 12 13  1  1
 12 14  1  0
 14 15  1  0
 15 16  1  0
 15 17  2  0
M  CHG  2  16   1  17  -1
M  RAD  2   9   2  16   2
M  END
>  <docking_score>  (3) 
-3.3969999999999998

$$$$
