
     RDKit          3D

 25 25  0  0  0  0  0  0  0  0999 V2000
   19.9863   -2.1028   -1.1902 C   0  0  0  0  0  0  0  0  0  0  0  0
   20.5661   -2.5980   -2.5392 C   0  0  1  0  0  0  0  0  0  0  0  0
   20.8405   -4.0607   -2.3447 C   0  0  0  0  0  0  0  0  0  0  0  0
   19.6000   -4.8421   -2.6531 C   0  0  2  0  0  0  0  0  0  0  0  0
   19.5329   -4.9989   -4.0401 O   0  0  0  0  0  0  0  0  0  0  0  0
   18.3281   -4.1587   -2.1935 C   0  0  2  0  0  0  0  0  0  0  0  0
   17.2788   -4.9486   -2.6750 O   0  0  0  0  0  0  0  0  0  0  0  0
   18.1594   -2.7880   -2.9053 C   0  0  1  0  0  0  0  0  0  0  0  0
   17.7752   -1.8351   -1.9537 O   0  0  0  0  0  0  0  0  0  0  0  0
   19.4249   -2.5287   -3.5553 C   0  0  1  0  0  0  0  0  0  0  0  0
   19.5930   -1.4372   -4.4421 N   0  0  0  0  0  0  0  0  0  0  0  0
   18.5131   -1.5221   -5.3589 C   0  0  0  0  0  3  0  0  0  0  0  0
   18.8157   -2.5332   -6.4759 C   0  0  2  0  0  0  0  0  0  0  0  0
   19.2449   -1.9515   -7.7181 C   0  0  0  0  0  0  0  0  0  0  0  0
   17.5225   -3.1344   -6.5508 O   0  0  0  0  0  0  0  0  0  0  0  0
   16.6853   -1.9980   -6.4651 C   0  0  0  0  0  3  0  0  0  0  0  0
   15.3911   -2.4604   -6.6401 O   0  0  0  0  0  0  0  0  0  0  0  0
   15.0088   -2.9881   -5.3735 C   0  0  1  0  0  0  0  0  0  0  0  0
   13.9924   -2.1143   -4.9543 O   0  0  0  0  0  0  0  0  0  0  0  0
   14.4810   -4.3560   -5.5263 C   0  0  2  0  0  0  0  0  0  0  0  0
   15.2859   -5.3717   -5.1361 O   0  0  0  0  0  0  0  0  0  0  0  0
   13.8590   -4.5298   -6.8697 C   0  0  0  0  0  3  0  0  0  0  0  0
   14.5310   -5.6550   -7.5931 C   0  0  0  0  0  3  0  0  0  0  0  0
   15.5605   -5.1171   -8.3575 O   0  0  0  0  0  0  0  0  0  0  0  0
   16.3530   -6.0970   -8.7374 O   0  0  0  0  0  0  0  0  0  0  0  0
  2  1  1  1
  2  3  1  0
  3  4  1  0
  4  5  1  6
  4  6  1  0
  6  7  1  6
  6  8  1  0
  8  9  1  1
  8 10  1  0
 10 11  1  1
 11 12  1  0
 12 13  1  0
 13 14  1  6
 13 15  1  0
 15 16  1  0
 16 17  1  0
 17 18  1  0
 18 19  1  6
 18 20  1  0
 20 21  1  6
 20 22  1  0
 22 23  1  0
 23 24  1  0
 24 25  1  0
 10  2  1  0
M  RAD  4  12   2  16   2  22   2  23   2
M  END
>  <docking_score>  (1) 
-3.7280000000000002

$$$$

     RDKit          3D

 25 25  0  0  0  0  0  0  0  0999 V2000
   17.9033   -8.5781   -5.0987 C   0  0  0  0  0  0  0  0  0  0  0  0
   17.6990   -7.0581   -4.8774 C   0  0  1  0  0  0  0  0  0  0  0  0
   19.0169   -6.5455   -4.3745 C   0  0  0  0  0  0  0  0  0  0  0  0
   19.8922   -6.2029   -5.5411 C   0  0  2  0  0  0  0  0  0  0  0  0
   19.5232   -4.9310   -5.9874 O   0  0  0  0  0  0  0  0  0  0  0  0
   19.7547   -7.1682   -6.7010 C   0  0  2  0  0  0  0  0  0  0  0  0
   20.5271   -6.6293   -7.7355 O   0  0  0  0  0  0  0  0  0  0  0  0
   18.2983   -7.1644   -7.2421 C   0  0  1  0  0  0  0  0  0  0  0  0
   17.8965   -8.4894   -7.4515 O   0  0  0  0  0  0  0  0  0  0  0  0
   17.5215   -6.4362   -6.2636 C   0  0  1  0  0  0  0  0  0  0  0  0
   16.1693   -6.0879   -6.5005 N   0  0  0  0  0  0  0  0  0  0  0  0
   15.9350   -4.9229   -5.7247 C   0  0  0  0  0  3  0  0  0  0  0  0
   14.4539   -4.8113   -5.3303 C   0  0  2  0  0  0  0  0  0  0  0  0
   13.5256   -5.2513   -6.3356 C   0  0  0  0  0  0  0  0  0  0  0  0
   14.4172   -3.4014   -5.1061 O   0  0  0  0  0  0  0  0  0  0  0  0
   15.6140   -3.2071   -4.3784 C   0  0  0  0  0  3  0  0  0  0  0  0
   15.5379   -1.9296   -3.8481 O   0  0  0  0  0  0  0  0  0  0  0  0
   16.5578   -1.8762   -2.8551 C   0  0  1  0  0  0  0  0  0  0  0  0
   15.8755   -1.4147   -1.7176 O   0  0  0  0  0  0  0  0  0  0  0  0
   17.1092   -3.2218   -2.6139 C   0  0  2  0  0  0  0  0  0  0  0  0
   16.8442   -3.7876   -1.4133 O   0  0  0  0  0  0  0  0  0  0  0  0
   18.5376   -3.2853   -3.0351 C   0  0  0  0  0  3  0  0  0  0  0  0
   19.3862   -2.5471   -2.0473 C   0  0  0  0  0  3  0  0  0  0  0  0
   20.2884   -3.4519   -1.4987 O   0  0  0  0  0  0  0  0  0  0  0  0
   20.1622   -3.4236   -0.1888 O   0  0  0  0  0  0  0  0  0  0  0  0
  2  1  1  6
  2  3  1  0
  3  4  1  0
  4  5  1  6
  4  6  1  0
  6  7  1  6
  6  8  1  0
  8  9  1  1
  8 10  1  0
 10 11  1  6
 11 12  1  0
 12 13  1  0
 13 14  1  6
 13 15  1  0
 15 16  1  0
 16 17  1  0
 17 18  1  0
 18 19  1  1
 18 20  1  0
 20 21  1  1
 20 22  1  0
 22 23  1  0
 23 24  1  0
 24 25  1  0
 10  2  1  0
M  RAD  4  12   2  16   2  22   2  23   2
M  END
>  <docking_score>  (2) 
-3.7269999999999999

$$$$

     RDKit          3D

 25 25  0  0  0  0  0  0  0  0999 V2000
   18.0152   -3.9228   -2.1239 C   0  0  0  0  0  0  0  0  0  0  0  0
   19.1917   -3.5499   -3.0609 C   0  0  1  0  0  0  0  0  0  0  0  0
   20.3976   -4.2288   -2.4800 C   0  0  0  0  0  0  0  0  0  0  0  0
   20.4850   -5.6253   -3.0155 C   0  0  2  0  0  0  0  0  0  0  0  0
   21.0821   -5.5577   -4.2772 O   0  0  0  0  0  0  0  0  0  0  0  0
   19.1355   -6.2975   -3.1676 C   0  0  2  0  0  0  0  0  0  0  0  0
   19.3908   -7.5211   -3.7956 O   0  0  0  0  0  0  0  0  0  0  0  0
   18.2451   -5.5097   -4.1679 C   0  0  1  0  0  0  0  0  0  0  0  0
   16.9586   -5.3958   -3.6264 O   0  0  0  0  0  0  0  0  0  0  0  0
   18.9283   -4.2551   -4.3924 C   0  0  1  0  0  0  0  0  0  0  0  0
   18.4913   -3.3394   -5.3805 N   0  0  0  0  0  0  0  0  0  0  0  0
   17.9749   -4.1358   -6.4356 C   0  0  0  0  0  3  0  0  0  0  0  0
   18.2462   -3.4855   -7.8013 C   0  0  2  0  0  0  0  0  0  0  0  0
   17.8235   -2.1164   -7.9138 C   0  0  0  0  0  0  0  0  0  0  0  0
   17.4745   -4.3822   -8.6012 O   0  0  0  0  0  0  0  0  0  0  0  0
   16.1593   -3.9655   -8.2912 C   0  0  0  0  0  3  0  0  0  0  0  0
   15.4070   -5.1230   -8.1753 O   0  0  0  0  0  0  0  0  0  0  0  0
   14.2040   -4.7230   -7.5259 C   0  0  1  0  0  0  0  0  0  0  0  0
   13.2787   -5.6977   -7.9335 O   0  0  0  0  0  0  0  0  0  0  0  0
   14.3760   -4.7568   -6.0623 C   0  0  2  0  0  0  0  0  0  0  0  0
   13.9753   -5.8803   -5.4229 O   0  0  0  0  0  0  0  0  0  0  0  0
   13.9005   -3.4837   -5.4498 C   0  0  0  0  0  3  0  0  0  0  0  0
   14.9834   -2.9013   -4.5961 C   0  0  0  0  0  3  0  0  0  0  0  0
   15.4997   -1.7928   -5.2581 O   0  0  0  0  0  0  0  0  0  0  0  0
   14.5224   -1.2107   -5.9206 O   0  0  0  0  0  0  0  0  0  0  0  0
  2  1  1  1
  2  3  1  0
  3  4  1  0
  4  5  1  6
  4  6  1  0
  6  7  1  6
  6  8  1  0
  8  9  1  1
  8 10  1  0
 10 11  1  6
 11 12  1  0
 12 13  1  0
 13 14  1  1
 13 15  1  0
 15 16  1  0
 16 17  1  0
 17 18  1  0
 18 19  1  1
 18 20  1  0
 20 21  1  1
 20 22  1  0
 22 23  1  0
 23 24  1  0
 24 25  1  0
 10  2  1  0
M  RAD  4  12   2  16   2  22   2  23   2
M  END
>  <docking_score>  (3) 
-3.7250000000000001

$$$$
