
     RDKit          3D

 32 32  0  0  0  0  0  0  0  0999 V2000
   19.3683   -7.4324   -7.7868 C   0  0  0  0  0  0  0  0  0  0  0  0
   20.2506   -7.1641   -6.5947 C   0  0  0  0  0  0  0  0  0  0  0  0
   20.0369   -8.1542   -5.4789 C   0  0  2  0  0  0  0  0  0  0  0  0
   18.5591   -8.2156   -5.1690 C   0  0  0  0  0  0  0  0  0  0  0  0
   20.7596   -7.7353   -4.2477 C   0  0  0  0  0  0  0  0  0  0  0  0
   20.9765   -8.5982   -3.3649 O   0  0  0  0  0  0  0  0  0  0  0  0
   21.2032   -6.4528   -4.0244 O   0  0  0  0  0  0  0  0  0  0  0  0
   21.2957   -5.9126   -2.6971 C   0  0  0  0  0  3  0  0  0  0  0  0
   20.7266   -4.5093   -2.6857 C   0  0  0  0  0  0  0  0  0  0  0  0
   20.0072   -4.2916   -3.9785 C   0  0  2  0  0  0  0  0  0  0  0  0
   20.5654   -3.1822   -4.6120 O   0  0  0  0  0  0  0  0  0  0  0  0
   18.5586   -4.0816   -3.8211 C   0  0  0  0  0  0  0  0  0  0  0  0
   17.6334   -4.7764   -4.4506 C   0  0  0  0  0  0  0  0  0  0  0  0
   16.2353   -4.5114   -4.2437 C   0  0  0  0  0  0  0  0  0  0  0  0
   15.3101   -4.4018   -5.1539 C   0  0  0  0  0  0  0  0  0  0  0  0
   15.5492   -4.5368   -6.6195 C   0  0  2  0  0  0  0  0  0  0  0  0
   16.6093   -5.5845   -6.8474 C   0  0  0  0  0  0  0  0  0  0  0  0
   16.0446   -3.2405   -7.1693 C   0  0  2  0  0  0  0  0  0  0  0  0
   17.2856   -3.3373   -7.9859 C   0  0  0  0  0  0  0  0  0  0  0  0
   18.1638   -2.1214   -7.9018 C   0  0  0  0  0  0  0  0  0  0  0  0
   19.4371   -2.3704   -7.1525 C   0  0  1  0  0  0  0  0  0  0  0  0
   20.3871   -3.2748   -7.9353 C   0  0  0  0  0  0  0  0  0  0  0  0
   20.0883   -1.1450   -6.9992 O   0  0  0  0  0  0  0  0  0  0  0  0
   19.6420   -0.4593   -5.8848 C   0  0  0  0  0  3  0  0  0  0  0  0
   20.5637   -0.8097   -4.7290 C   0  0  0  0  0  0  0  0  0  0  0  0
   20.0011   -2.0353   -4.0373 C   0  0  2  0  0  0  0  0  0  0  0  0
   20.1484   -1.9962   -2.6694 O   0  0  0  0  0  0  0  0  0  0  0  0
   16.0089   -2.0997   -6.2086 C   0  0  0  0  0  3  0  0  0  0  0  0
   14.4397   -1.2204   -6.3635 S   0  0  0  0  0  0  0  0  0  0  0  0
   14.4551    0.3532   -5.4689 C   0  0  0  0  0  0  0  0  0  0  0  0
   13.9036    0.1524   -4.0739 C   0  0  0  0  0  0  0  0  0  0  0  0
   14.7461   -0.9051   -3.3682 C   0  0  0  0  0  2  0  0  0  0  0  0
  1  2  1  0
  2  3  1  0
  3  4  1  1
  3  5  1  0
  5  6  2  0
  5  7  1  0
  7  8  1  0
  8  9  1  0
 10  9  1  1
 10 11  1  0
 10 12  1  0
 12 13  2  3
 13 14  1  0
 14 15  2  3
 15 16  1  0
 16 17  1  1
 16 18  1  0
 18 19  1  0
 19 20  1  0
 20 21  1  0
 21 22  1  6
 21 23  1  0
 23 24  1  0
 24 25  1  0
 25 26  1  0
 26 27  1  1
 18 28  1  1
 28 29  1  0
 29 30  1  0
 30 31  1  0
 31 32  1  0
 26 11  1  0
M  RAD  4   8   2  24   2  28   2  32   3
M  END
>  <docking_score>  (1) 
-3.6309999999999998

$$$$

     RDKit          3D

 32 32  0  0  0  0  0  0  0  0999 V2000
    3.4358    5.1512    5.2536 C   0  0  0  0  0  0  0  0  0  0  0  0
    4.6620    5.9055    4.8074 C   0  0  0  0  0  0  0  0  0  0  0  0
    4.5008    7.3991    4.9258 C   0  0  2  0  0  0  0  0  0  0  0  0
    3.2547    7.6844    5.7318 C   0  0  0  0  0  0  0  0  0  0  0  0
    4.3495    8.0276    3.5859 C   0  0  0  0  0  0  0  0  0  0  0  0
    4.6533    7.3508    2.5757 O   0  0  0  0  0  0  0  0  0  0  0  0
    3.8944    9.3112    3.3939 O   0  0  0  0  0  0  0  0  0  0  0  0
    4.5920   10.2340    2.5432 C   0  0  0  0  0  3  0  0  0  0  0  0
    5.6907   10.9132    3.3339 C   0  0  0  0  0  0  0  0  0  0  0  0
    5.0492   11.7221    4.4158 C   0  0  2  0  0  0  0  0  0  0  0  0
    5.5079   13.0348    4.3153 O   0  0  0  0  0  0  0  0  0  0  0  0
    5.3203   11.2168    5.7716 C   0  0  0  0  0  0  0  0  0  0  0  0
    4.3897   10.9330    6.6597 C   0  0  0  0  0  0  0  0  0  0  0  0
    4.7344   10.4422    7.9666 C   0  0  0  0  0  0  0  0  0  0  0  0
    4.2515   10.8369    9.1100 C   0  0  0  0  0  0  0  0  0  0  0  0
    3.2215   11.9036    9.2670 C   0  0  2  0  0  0  0  0  0  0  0  0
    2.2580   11.8270    8.1098 C   0  0  0  0  0  0  0  0  0  0  0  0
    3.8784   13.2438    9.2429 C   0  0  2  0  0  0  0  0  0  0  0  0
    3.2810   14.2195    8.2904 C   0  0  0  0  0  0  0  0  0  0  0  0
    4.2726   15.1894    7.7135 C   0  0  0  0  0  0  0  0  0  0  0  0
    4.5438   14.9527    6.2591 C   0  0  1  0  0  0  0  0  0  0  0  0
    3.3425   15.3234    5.3915 C   0  0  0  0  0  0  0  0  0  0  0  0
    5.5879   15.7973    5.8771 O   0  0  0  0  0  0  0  0  0  0  0  0
    6.8252   15.2364    6.1331 C   0  0  0  0  0  3  0  0  0  0  0  0
    7.2761   14.5205    4.8712 C   0  0  0  0  0  0  0  0  0  0  0  0
    6.7639   13.0953    4.9339 C   0  0  2  0  0  0  0  0  0  0  0  0
    7.6555   12.1802    4.4221 O   0  0  0  0  0  0  0  0  0  0  0  0
    5.3698   13.2092    9.2583 C   0  0  0  0  0  3  0  0  0  0  0  0
    5.9829   13.9959   10.7631 S   0  0  0  0  0  0  0  0  0  0  0  0
    7.2927   13.0241   11.5488 C   0  0  0  0  0  0  0  0  0  0  0  0
    6.7345   12.2930   12.7506 C   0  0  0  0  0  0  0  0  0  0  0  0
    6.3595   10.8774   12.3244 C   0  0  0  0  0  2  0  0  0  0  0  0
  1  2  1  0
  2  3  1  0
  3  4  1  1
  3  5  1  0
  5  6  2  0
  5  7  1  0
  7  8  1  0
  8  9  1  0
 10  9  1  6
 10 11  1  0
 10 12  1  0
 12 13  2  3
 13 14  1  0
 14 15  2  3
 15 16  1  0
 16 17  1  6
 16 18  1  0
 18 19  1  0
 19 20  1  0
 20 21  1  0
 21 22  1  6
 21 23  1  0
 23 24  1  0
 24 25  1  0
 25 26  1  0
 26 27  1  6
 18 28  1  6
 28 29  1  0
 29 30  1  0
 30 31  1  0
 31 32  1  0
 26 11  1  0
M  RAD  4   8   2  24   2  28   2  32   3
M  END
>  <docking_score>  (2) 
-3.355

$$$$

     RDKit          3D

 32 32  0  0  0  0  0  0  0  0999 V2000
   20.9677   -4.3908   -1.5892 C   0  0  0  0  0  0  0  0  0  0  0  0
   20.5119   -2.9923   -1.2607 C   0  0  0  0  0  0  0  0  0  0  0  0
   19.8296   -2.3155   -2.4215 C   0  0  2  0  0  0  0  0  0  0  0  0
   20.7141   -1.1910   -2.9081 C   0  0  0  0  0  0  0  0  0  0  0  0
   18.5203   -1.7411   -2.0101 C   0  0  0  0  0  0  0  0  0  0  0  0
   18.5215   -0.6763   -1.3489 O   0  0  0  0  0  0  0  0  0  0  0  0
   17.3078   -2.3141   -2.3152 O   0  0  0  0  0  0  0  0  0  0  0  0
   16.2578   -1.5584   -2.9385 C   0  0  0  0  0  3  0  0  0  0  0  0
   15.9408   -2.1611   -4.2912 C   0  0  0  0  0  0  0  0  0  0  0  0
   17.0612   -3.0795   -4.6622 C   0  0  2  0  0  0  0  0  0  0  0  0
   17.8124   -2.4740   -5.6685 O   0  0  0  0  0  0  0  0  0  0  0  0
   16.6125   -4.4038   -5.1228 C   0  0  0  0  0  0  0  0  0  0  0  0
   17.0278   -5.5472   -4.6178 C   0  0  0  0  0  0  0  0  0  0  0  0
   16.5418   -6.8030   -5.1225 C   0  0  0  0  0  0  0  0  0  0  0  0
   17.2439   -7.8602   -5.4152 C   0  0  0  0  0  0  0  0  0  0  0  0
   18.7251   -7.9546   -5.2727 C   0  0  2  0  0  0  0  0  0  0  0  0
   19.1506   -7.1683   -4.0586 C   0  0  0  0  0  0  0  0  0  0  0  0
   19.3844   -7.3590   -6.4722 C   0  0  2  0  0  0  0  0  0  0  0  0
   20.4371   -6.3494   -6.1746 C   0  0  0  0  0  0  0  0  0  0  0  0
   20.5535   -5.2699   -7.2128 C   0  0  0  0  0  0  0  0  0  0  0  0
   20.0784   -3.9354   -6.7246 C   0  0  1  0  0  0  0  0  0  0  0  0
   21.0263   -3.3432   -5.6835 C   0  0  0  0  0  0  0  0  0  0  0  0
   20.0805   -3.0585   -7.8110 O   0  0  0  0  0  0  0  0  0  0  0  0
   18.9085   -3.1372   -8.5400 C   0  0  0  0  0  3  0  0  0  0  0  0
   17.9619   -2.0759   -8.0056 C   0  0  0  0  0  0  0  0  0  0  0  0
   17.1511   -2.6944   -6.8843 C   0  0  2  0  0  0  0  0  0  0  0  0
   15.8435   -2.2654   -6.8660 O   0  0  0  0  0  0  0  0  0  0  0  0
   18.4539   -6.9928   -7.5794 C   0  0  0  0  0  3  0  0  0  0  0  0
   18.0809   -8.4543   -8.5715 S   0  0  0  0  0  0  0  0  0  0  0  0
   19.2418   -9.8053   -8.2484 C   0  0  0  0  0  0  0  0  0  0  0  0
   18.6549  -11.1108   -8.7399 C   0  0  0  0  0  0  0  0  0  0  0  0
   17.9354  -11.7860   -7.5768 C   0  0  0  0  0  2  0  0  0  0  0  0
  1  2  1  0
  2  3  1  0
  3  4  1  1
  3  5  1  0
  5  6  2  0
  5  7  1  0
  7  8  1  0
  8  9  1  0
 10  9  1  6
 10 11  1  0
 10 12  1  0
 12 13  2  3
 13 14  1  0
 14 15  2  3
 15 16  1  0
 16 17  1  1
 16 18  1  0
 18 19  1  0
 19 20  1  0
 20 21  1  0
 21 22  1  1
 21 23  1  0
 23 24  1  0
 24 25  1  0
 25 26  1  0
 26 27  1  1
 18 28  1  6
 28 29  1  0
 29 30  1  0
 30 31  1  0
 31 32  1  0
 26 11  1  0
M  RAD  4   8   2  24   2  28   2  32   3
M  END
>  <docking_score>  (3) 
-2.6970000000000001

$$$$
