
     RDKit          3D

 46 52  0  0  0  0  0  0  0  0999 V2000
    7.8013   11.3427    2.0159 C   0  0  0  0  0  0  0  0  0  0  0  0
    6.5847   11.6607    1.1510 C   0  0  0  0  0  3  0  0  0  0  0  0
    5.4556   10.6932    1.3842 C   0  0  0  0  0  0  0  0  0  0  0  0
    4.4939   11.2396    2.4048 C   0  0  0  0  0  3  0  0  0  0  0  0
    3.7588   12.4697    1.9212 C   0  0  1  0  0  0  0  0  0  0  0  0
    3.1854   13.1420    2.9847 O   0  0  0  0  0  0  0  0  0  0  0  0
    4.7205   13.3502    1.1306 C   0  0  0  0  0  0  0  0  0  0  0  0
    6.0991   13.0214    1.6103 C   0  0  2  0  0  0  0  0  0  0  0  0
    7.1130   14.0979    1.3719 C   0  0  0  0  0  0  0  0  0  0  0  0
    8.3034   13.6829    1.9913 O   0  0  0  0  0  0  0  0  0  0  0  0
    8.0746   12.5920    2.8139 C   0  0  2  0  0  0  0  0  0  0  0  0
    9.0954   12.4157    3.8926 C   0  0  0  0  0  0  0  0  0  0  0  0
    8.7618   13.3405    5.0581 C   0  0  0  0  0  3  0  0  0  0  0  0
    7.7950   12.6741    6.0319 C   0  0  2  0  0  0  0  0  0  0  0  0
    7.1671   11.5300    5.2295 C   0  0  0  0  0  0  0  0  0  0  0  0
    6.5854   13.5146    6.1934 C   0  0  1  0  0  0  0  0  0  0  0  0
    6.6226   14.6597    6.8690 O   0  0  0  0  0  0  0  0  0  0  0  0
    6.1736   13.5886    4.7254 C   0  0  0  0  0  3  0  0  0  0  0  0
    5.8510   12.0869    4.6856 C   0  0  2  0  0  0  0  0  0  0  0  0
    4.8414   11.9361    5.8239 C   0  0  1  0  0  0  0  0  0  0  0  0
    5.4416   11.2739    7.0311 C   0  0  0  0  0  3  0  0  0  0  0  0
    4.4031   11.2347    8.1133 C   0  0  0  0  0  3  0  0  0  0  0  0
    3.0500   11.1224    7.4565 C   0  0  0  0  0  0  0  0  0  0  0  0
    2.4920    9.7117    7.5882 C   0  0  0  0  0  2  0  0  0  0  0  0
    3.4460    8.6742    6.4359 S   0  0  0  0  0  0  0  0  0  0  0  0
    3.5025    9.5613    4.8445 C   0  0  0  0  0  0  0  0  0  0  0  0
    2.2655   10.8727    4.8033 S   0  0  0  0  0  0  0  0  0  0  0  0
    2.4884   12.2760    4.1210 S   0  0  1  0  0  0  0  0  0  0  0  0
    2.5972   13.5428    5.6189 S   0  0  0  0  0  0  0  0  0  0  0  0
    4.2419   13.2451    6.2347 C   0  0  1  0  0  0  0  0  0  0  0  0
    4.5195   13.6840    7.6148 C   0  0  0  0  0  0  0  0  0  0  0  0
    5.6566   14.5868    7.8424 C   0  0  0  0  0  3  0  0  0  0  0  0
    5.4258   15.9872    8.8747 S   0  0  0  0  0  0  0  0  0  0  0  0
    6.0212   15.8144   10.5618 C   0  0  0  0  0  0  0  0  0  0  0  0
    7.2789   14.9808   10.5654 C   0  0  0  0  0  2  0  0  0  0  0  0
    7.8076   14.2494   11.8486 S   0  0  2  0  0  0  0  0  0  0  0  0
    6.8528   13.5144   13.2235 S   0  0  0  0  0  0  0  0  0  0  0  0
    6.7361   14.8916   14.4130 C   0  0  0  0  0  2  0  0  0  0  0  0
    7.2460   16.0750   13.6077 C   0  0  0  0  0  0  0  0  0  0  0  0
    8.6326   15.6828   13.1755 C   0  0  1  0  0  0  0  0  0  0  0  0
    9.2910   14.4609   14.3449 S   0  0  0  0  0  0  0  0  0  0  0  0
   10.8276   13.9547   13.7865 O   0  0  0  0  0  0  0  0  0  0  0  0
   11.6497   13.8266   14.9120 C   0  0  0  0  0  2  0  0  0  0  0  0
   12.9541   13.1395   14.5288 C   0  0  0  0  0  0  0  0  0  0  0  0
   12.8719   12.5443   12.8355 S   0  0  0  0  0  0  0  0  0  0  0  0
   12.4947   13.7004   11.9352 O   0  0  0  0  0  0  0  0  0  0  0  0
  1  2  1  0
  2  3  1  0
  3  4  1  0
  5  4  1  1
  5  6  1  0
  5  7  1  0
  8  7  1  6
  8  9  1  0
  9 10  1  0
 10 11  1  0
 11 12  1  6
 12 13  1  0
 14 13  1  6
 14 15  1  0
 14 16  1  0
 16 17  1  6
 16 18  1  0
 19 18  1  1
 19 20  1  0
 20 21  1  1
 21 22  1  0
 22 23  1  0
 23 24  1  0
 24 25  1  0
 25 26  1  0
 26 27  1  0
 28 27  1  1
 28 29  1  0
 29 30  1  0
 30 31  1  1
 31 32  1  0
 32 33  1  0
 33 34  1  0
 34 35  1  0
 36 35  1  6
 36 37  1  0
 37 38  1  0
 38 39  1  0
 39 40  1  0
 40 41  1  1
 41 42  1  0
 42 43  1  0
 43 44  1  0
 44 45  1  0
 45 46  2  0
 11  1  1  0
  8  2  1  0
 28  6  1  0
 19 15  1  0
 32 17  1  0
 30 20  1  0
 40 36  1  0
M  RAD  8   2   2   4   2  13   2  18   2  21   2  22   2  24   3  32   2
M  RAD  3  35   3  38   3  43   3
M  END
>  <docking_score>  (1) 
1.7829999999999999

$$$$
