
     RDKit          3D

 25 25  0  0  0  0  0  0  0  0999 V2000
   17.0335   -3.4449   -1.6111 C   0  0  0  0  0  0  0  0  0  0  0  0
   17.7516   -2.3398   -2.3028 C   0  0  1  0  0  0  0  0  0  0  0  0
   19.2292   -2.3744   -1.8766 C   0  0  0  0  0  0  0  0  0  0  0  0
   19.6160   -3.8430   -2.0054 C   0  0  2  0  0  0  0  0  0  0  0  0
   20.8273   -4.0589   -1.3855 O   0  0  0  0  0  0  0  0  0  0  0  0
   19.6203   -4.2043   -3.4725 C   0  0  2  0  0  0  0  0  0  0  0  0
   20.5429   -3.4709   -4.2038 O   0  0  0  0  0  0  0  0  0  0  0  0
   18.2587   -4.0073   -4.0458 C   0  0  1  0  0  0  0  0  0  0  0  0
   17.4272   -4.9714   -3.5398 O   0  0  0  0  0  0  0  0  0  0  0  0
   17.7599   -2.5635   -3.7863 C   0  0  1  0  0  0  0  0  0  0  0  0
   16.4341   -2.5065   -4.3213 N   0  0  0  0  0  0  0  0  0  0  0  0
   16.2845   -1.6647   -5.4631 C   0  0  0  0  0  3  0  0  0  0  0  0
   14.7863   -1.8168   -5.8941 C   0  0  2  0  0  0  0  0  0  0  0  0
   14.1013   -0.4666   -5.5496 C   0  0  0  0  0  0  0  0  0  0  0  0
   14.2545   -2.8181   -5.0158 O   0  0  0  0  0  0  0  0  0  0  0  0
   13.9528   -3.9248   -5.7228 C   0  0  0  0  0  3  0  0  0  0  0  0
   14.8308   -4.9033   -5.9081 O   0  0  0  0  0  0  0  0  0  0  0  0
   14.3956   -5.8114   -6.9187 C   0  0  1  0  0  0  0  0  0  0  0  0
   13.3561   -5.1312   -7.6028 O   0  0  0  0  0  0  0  0  0  0  0  0
   15.5674   -5.7086   -7.9745 C   0  0  1  0  0  0  0  0  0  0  0  0
   15.4262   -4.5069   -8.6305 O   0  0  0  0  0  0  0  0  0  0  0  0
   16.7899   -5.8203   -7.1326 C   0  0  0  0  0  3  0  0  0  0  0  0
   17.3281   -7.2405   -7.2102 C   0  0  0  0  0  0  0  0  0  0  0  0
   18.3403   -7.3269   -6.0601 C   0  0  0  0  0  0  0  0  0  0  0  0
   17.6982   -7.9486   -5.0086 O   0  0  0  0  0  0  0  0  0  0  0  0
  2  1  1  1
  2  3  1  0
  3  4  1  0
  4  5  1  6
  4  6  1  0
  6  7  1  6
  6  8  1  0
  8  9  1  1
  8 10  1  0
 10 11  1  1
 11 12  1  0
 12 13  1  0
 13 14  1  1
 13 15  1  0
 15 16  1  0
 16 17  1  0
 17 18  1  0
 18 19  1  6
 18 20  1  0
 20 21  1  1
 20 22  1  0
 22 23  1  0
 23 24  1  0
 24 25  1  0
 10  2  1  0
M  RAD  3  12   2  16   2  22   2
M  END
>  <docking_score>  (1) 
-3.9390000000000001

$$$$

     RDKit          3D

 25 25  0  0  0  0  0  0  0  0999 V2000
   17.1243   -6.7588   -7.4019 C   0  0  0  0  0  0  0  0  0  0  0  0
   16.9261   -7.6753   -6.2462 C   0  0  1  0  0  0  0  0  0  0  0  0
   18.0241   -8.7520   -6.2818 C   0  0  0  0  0  0  0  0  0  0  0  0
   19.3059   -7.9636   -6.5236 C   0  0  2  0  0  0  0  0  0  0  0  0
   20.3249   -8.8281   -6.8594 O   0  0  0  0  0  0  0  0  0  0  0  0
   19.5976   -7.1438   -5.2884 C   0  0  2  0  0  0  0  0  0  0  0  0
   19.8026   -7.9253   -4.1609 O   0  0  0  0  0  0  0  0  0  0  0  0
   18.4795   -6.1905   -5.0386 C   0  0  1  0  0  0  0  0  0  0  0  0
   18.5043   -5.2232   -6.0083 O   0  0  0  0  0  0  0  0  0  0  0  0
   17.1280   -6.9435   -4.9521 C   0  0  1  0  0  0  0  0  0  0  0  0
   16.1298   -5.9344   -4.7720 N   0  0  0  0  0  0  0  0  0  0  0  0
   14.7898   -6.3714   -4.9915 C   0  0  0  0  0  3  0  0  0  0  0  0
   14.0334   -5.1180   -5.5486 C   0  0  2  0  0  0  0  0  0  0  0  0
   13.6450   -5.4660   -7.0112 C   0  0  0  0  0  0  0  0  0  0  0  0
   15.0250   -4.0827   -5.5898 O   0  0  0  0  0  0  0  0  0  0  0  0
   14.7032   -3.1139   -4.7104 C   0  0  0  0  0  3  0  0  0  0  0  0
   15.5306   -2.1141   -4.4299 O   0  0  0  0  0  0  0  0  0  0  0  0
   16.8435   -2.5891   -4.1362 C   0  0  1  0  0  0  0  0  0  0  0  0
   17.6771   -2.0019   -5.1220 O   0  0  0  0  0  0  0  0  0  0  0  0
   17.2249   -1.7265   -2.8678 C   0  0  1  0  0  0  0  0  0  0  0  0
   16.1226   -1.6959   -2.0442 O   0  0  0  0  0  0  0  0  0  0  0  0
   18.4007   -2.4492   -2.3104 C   0  0  0  0  0  3  0  0  0  0  0  0
   19.5973   -1.5116   -2.2710 C   0  0  0  0  0  0  0  0  0  0  0  0
   20.4294   -2.0067   -1.0805 C   0  0  0  0  0  0  0  0  0  0  0  0
   21.2223   -0.9505   -0.6803 O   0  0  0  0  0  0  0  0  0  0  0  0
  2  1  1  6
  2  3  1  0
  3  4  1  0
  4  5  1  1
  4  6  1  0
  6  7  1  1
  6  8  1  0
  8  9  1  6
  8 10  1  0
 10 11  1  6
 11 12  1  0
 12 13  1  0
 13 14  1  6
 13 15  1  0
 15 16  1  0
 16 17  1  0
 17 18  1  0
 18 19  1  6
 18 20  1  0
 20 21  1  1
 20 22  1  0
 22 23  1  0
 23 24  1  0
 24 25  1  0
 10  2  1  0
M  RAD  3  12   2  16   2  22   2
M  END
>  <docking_score>  (2) 
-3.6669999999999998

$$$$

     RDKit          3D

 25 25  0  0  0  0  0  0  0  0999 V2000
   17.5633   -2.3415   -4.9955 C   0  0  0  0  0  0  0  0  0  0  0  0
   19.0250   -2.1346   -5.1843 C   0  0  1  0  0  0  0  0  0  0  0  0
   19.5445   -1.2443   -4.0425 C   0  0  0  0  0  0  0  0  0  0  0  0
   18.9341   -1.8592   -2.7885 C   0  0  2  0  0  0  0  0  0  0  0  0
   19.0872   -0.9942   -1.7271 O   0  0  0  0  0  0  0  0  0  0  0  0
   19.5775   -3.2072   -2.5611 C   0  0  2  0  0  0  0  0  0  0  0  0
   20.9460   -3.1211   -2.3520 O   0  0  0  0  0  0  0  0  0  0  0  0
   19.3052   -4.1000   -3.7231 C   0  0  1  0  0  0  0  0  0  0  0  0
   17.9774   -4.4372   -3.7142 O   0  0  0  0  0  0  0  0  0  0  0  0
   19.7639   -3.4329   -5.0443 C   0  0  1  0  0  0  0  0  0  0  0  0
   19.4031   -4.3436   -6.0872 N   0  0  0  0  0  0  0  0  0  0  0  0
   20.2228   -4.2750   -7.2526 C   0  0  0  0  0  3  0  0  0  0  0  0
   19.2239   -4.2633   -8.4591 C   0  0  2  0  0  0  0  0  0  0  0  0
   18.9071   -2.7693   -8.7396 C   0  0  0  0  0  0  0  0  0  0  0  0
   18.0324   -4.8793   -7.9515 O   0  0  0  0  0  0  0  0  0  0  0  0
   16.9509   -4.2798   -8.4868 C   0  0  0  0  0  3  0  0  0  0  0  0
   15.7164   -4.6975   -8.2331 O   0  0  0  0  0  0  0  0  0  0  0  0
   15.2665   -4.2523   -6.9545 C   0  0  1  0  0  0  0  0  0  0  0  0
   14.7455   -2.9524   -7.1790 O   0  0  0  0  0  0  0  0  0  0  0  0
   13.9339   -5.0825   -6.7717 C   0  0  1  0  0  0  0  0  0  0  0  0
   13.6319   -5.6494   -7.9890 O   0  0  0  0  0  0  0  0  0  0  0  0
   14.2868   -6.0542   -5.7009 C   0  0  0  0  0  3  0  0  0  0  0  0
   15.7540   -5.8921   -5.3356 C   0  0  0  0  0  0  0  0  0  0  0  0
   16.4106   -7.1950   -5.8111 C   0  0  0  0  0  0  0  0  0  0  0  0
   17.2466   -7.6146   -4.7964 O   0  0  0  0  0  0  0  0  0  0  0  0
  2  1  1  1
  2  3  1  0
  3  4  1  0
  4  5  1  1
  4  6  1  0
  6  7  1  6
  6  8  1  0
  8  9  1  6
  8 10  1  0
 10 11  1  6
 11 12  1  0
 12 13  1  0
 13 14  1  1
 13 15  1  0
 15 16  1  0
 16 17  1  0
 17 18  1  0
 18 19  1  6
 18 20  1  0
 20 21  1  6
 20 22  1  0
 22 23  1  0
 23 24  1  0
 24 25  1  0
 10  2  1  0
M  RAD  3  12   2  16   2  22   2
M  END
>  <docking_score>  (3) 
-2.984

$$$$
