
     RDKit          3D

 33 36  0  0  0  0  0  0  0  0999 V2000
   11.7064   14.7325   14.9411 C   0  0  0  0  0  0  0  0  0  0  0  0
   11.6684   14.6807   13.6200 C   0  0  0  0  0  0  0  0  0  0  0  0
   10.4189   15.0532   12.9468 C   0  0  0  0  0  0  0  0  0  0  0  0
   10.4145   15.4398   11.7445 O   0  0  0  0  0  0  0  0  0  0  0  0
    9.1940   15.0018   13.5851 O   0  0  0  0  0  0  0  0  0  0  0  0
    8.3499   13.8412   13.5081 C   0  0  1  0  0  0  0  0  0  0  0  0
    7.2291   14.0691   14.4508 C   0  0  0  0  0  0  0  0  0  0  0  0
    5.9354   13.4529   14.1048 C   0  0  1  0  0  0  0  0  0  0  0  0
    4.9705   14.3351   13.3818 C   0  0  0  0  0  0  0  0  0  0  0  0
    6.0170   12.0545   13.5510 C   0  0  1  0  0  0  0  0  0  0  0  0
    5.0655   11.1062   14.1766 C   0  0  0  0  0  0  0  0  0  0  0  0
    3.6148   11.4170   13.8283 C   0  0  0  0  0  0  0  0  0  0  0  0
    3.2372   10.4457   12.7316 C   0  0  0  0  0  3  0  0  0  0  0  0
    4.0636   10.7618   11.5414 C   0  0  0  0  0  0  0  0  0  0  0  0
    3.2964   10.7378   10.4343 C   0  0  0  0  0  0  0  0  0  0  0  0
    3.9087   11.0219    9.1419 C   0  0  0  0  0  0  0  0  0  0  0  0
    3.8952   10.1598    8.1710 C   0  0  0  0  0  0  0  0  0  0  0  0
    4.5419   10.5287    6.8860 C   0  0  0  0  0  0  0  0  0  0  0  0
    4.5186    9.3584    5.9504 C   0  0  1  0  0  0  0  0  0  0  0  0
    5.5618    9.4970    4.8484 C   0  0  0  0  0  0  0  0  0  0  0  0
    4.8413    8.0821    6.6939 C   0  0  0  0  0  0  0  0  0  0  0  0
    3.7057    7.6675    7.6017 C   0  0  2  0  0  0  0  0  0  0  0  0
    2.6718    7.0974    6.8633 O   0  0  0  0  0  0  0  0  0  0  0  0
    3.2479    8.8561    8.3661 C   0  0  0  0  0  0  0  0  0  0  0  0
    2.2636    8.8137    9.2387 C   0  0  0  0  0  0  0  0  0  0  0  0
    5.4603   11.0809   11.2719 C   0  0  1  0  0  0  0  0  0  0  0  0
    5.4672   12.1653   10.1711 C   0  0  0  0  0  0  0  0  0  0  0  0
    5.3169   13.1454   11.3501 C   0  0  0  0  0  0  0  0  0  0  0  0
    6.1254   12.0822   12.1079 C   0  0  1  0  0  0  0  0  0  0  0  0
    7.5817   12.2527   11.7180 C   0  0  0  0  0  0  0  0  0  0  0  0
    7.9739   13.6458   12.0869 C   0  0  1  0  0  0  0  0  0  0  0  0
    7.1241   14.7155   11.4938 C   0  0  0  0  0  0  0  0  0  0  0  0
    7.4349   14.8862   10.0253 C   0  0  0  0  0  2  0  0  0  0  0  0
  1  2  2  0
  2  3  1  0
  3  4  2  0
  3  5  1  0
  6  5  1  6
  6  7  1  0
  7  8  1  0
  8  9  1  6
  8 10  1  0
 10 11  1  6
 11 12  1  0
 12 13  1  0
 13 14  1  0
 14 15  2  0
 15 16  1  0
 16 17  2  0
 17 18  1  0
 18 19  1  0
 19 20  1  6
 19 21  1  0
 21 22  1  0
 22 23  1  6
 22 24  1  0
 24 25  2  0
 14 26  1  0
 26 27  1  6
 27 28  1  0
 29 28  1  6
 29 30  1  0
  6 31  1  0
 31 32  1  1
 32 33  1  0
 29 10  1  0
 24 17  1  0
 29 26  1  0
 31 30  1  0
M  RAD  2  13   2  33   3
M  END
>  <docking_score>  (1) 
-3.8919999999999999

$$$$

     RDKit          3D

 33 36  0  0  0  0  0  0  0  0999 V2000
    9.5149   13.7043   13.9462 C   0  0  0  0  0  0  0  0  0  0  0  0
    8.7152   14.1923   14.8799 C   0  0  0  0  0  0  0  0  0  0  0  0
    7.4954   14.8881   14.4542 C   0  0  0  0  0  0  0  0  0  0  0  0
    7.5428   16.0540   13.9711 O   0  0  0  0  0  0  0  0  0  0  0  0
    6.2435   14.3113   14.5579 O   0  0  0  0  0  0  0  0  0  0  0  0
    5.9028   13.1115   13.8439 C   0  0  1  0  0  0  0  0  0  0  0  0
    4.5433   12.7245   14.2901 C   0  0  0  0  0  0  0  0  0  0  0  0
    3.6984   12.0201   13.3087 C   0  0  1  0  0  0  0  0  0  0  0  0
    2.7563   12.8791   12.5300 C   0  0  0  0  0  0  0  0  0  0  0  0
    4.4069   10.9824   12.4780 C   0  0  1  0  0  0  0  0  0  0  0  0
    3.6888    9.6887   12.3957 C   0  0  0  0  0  0  0  0  0  0  0  0
    2.3928    9.7880   11.6000 C   0  0  0  0  0  0  0  0  0  0  0  0
    2.7099    9.2400   10.2261 C   0  0  0  0  0  3  0  0  0  0  0  0
    3.6975   10.1470    9.5928 C   0  0  0  0  0  0  0  0  0  0  0  0
    3.3515   10.3742    8.3108 C   0  0  0  0  0  0  0  0  0  0  0  0
    4.1892   11.2447    7.4944 C   0  0  0  0  0  0  0  0  0  0  0  0
    4.6615   10.8641    6.3464 C   0  0  0  0  0  0  0  0  0  0  0  0
    5.5069   11.8127    5.5777 C   0  0  0  0  0  0  0  0  0  0  0  0
    6.0416   11.1384    4.3509 C   0  0  1  0  0  0  0  0  0  0  0  0
    7.2664   11.8586    3.8004 C   0  0  0  0  0  0  0  0  0  0  0  0
    6.4776    9.7269    4.6724 C   0  0  0  0  0  0  0  0  0  0  0  0
    5.2913    8.8249    4.9263 C   0  0  2  0  0  0  0  0  0  0  0  0
    4.6787    8.4722    3.7265 O   0  0  0  0  0  0  0  0  0  0  0  0
    4.3512    9.5200    5.8427 C   0  0  0  0  0  0  0  0  0  0  0  0
    3.2168    8.9887    6.2467 C   0  0  0  0  0  0  0  0  0  0  0  0
    4.9183   10.8354    9.9942 C   0  0  1  0  0  0  0  0  0  0  0  0
    4.8891   12.2267    9.3225 C   0  0  0  0  0  0  0  0  0  0  0  0
    4.0730   12.6386   10.5624 C   0  0  0  0  0  0  0  0  0  0  0  0
    4.9258   11.5696   11.2610 C   0  0  1  0  0  0  0  0  0  0  0  0
    6.2858   12.1817   11.5403 C   0  0  0  0  0  0  0  0  0  0  0  0
    6.0575   13.3853   12.3946 C   0  0  1  0  0  0  0  0  0  0  0  0
    5.1163   14.3898   11.8259 C   0  0  0  0  0  0  0  0  0  0  0  0
    5.0202   15.5969   12.7292 C   0  0  0  0  0  2  0  0  0  0  0  0
  1  2  2  0
  2  3  1  0
  3  4  2  0
  3  5  1  0
  6  5  1  1
  6  7  1  0
  7  8  1  0
  8  9  1  6
  8 10  1  0
 10 11  1  6
 11 12  1  0
 12 13  1  0
 13 14  1  0
 14 15  2  0
 15 16  1  0
 16 17  2  0
 17 18  1  0
 18 19  1  0
 19 20  1  1
 19 21  1  0
 21 22  1  0
 22 23  1  6
 22 24  1  0
 24 25  2  0
 14 26  1  0
 26 27  1  6
 27 28  1  0
 29 28  1  6
 29 30  1  0
  6 31  1  0
 31 32  1  6
 32 33  1  0
 29 10  1  0
 24 17  1  0
 29 26  1  0
 31 30  1  0
M  RAD  2  13   2  33   3
M  END
>  <docking_score>  (2) 
-3.2789999999999999

$$$$

     RDKit          3D

 33 36  0  0  0  0  0  0  0  0999 V2000
   12.5759   -0.2467   -4.6976 C   0  0  0  0  0  0  0  0  0  0  0  0
   13.8140    0.2005   -4.5690 C   0  0  0  0  0  0  0  0  0  0  0  0
   14.6696   -0.4111   -3.5457 C   0  0  0  0  0  0  0  0  0  0  0  0
   14.1802   -0.8828   -2.4813 O   0  0  0  0  0  0  0  0  0  0  0  0
   16.0413   -0.5027   -3.6902 O   0  0  0  0  0  0  0  0  0  0  0  0
   16.6434   -0.9615   -4.9118 C   0  0  1  0  0  0  0  0  0  0  0  0
   18.0468   -0.4848   -4.8975 C   0  0  0  0  0  0  0  0  0  0  0  0
   19.0392   -1.3227   -5.5948 C   0  0  1  0  0  0  0  0  0  0  0  0
   19.7873   -2.2903   -4.7369 C   0  0  0  0  0  0  0  0  0  0  0  0
   18.5839   -1.8984   -6.9101 C   0  0  1  0  0  0  0  0  0  0  0  0
   19.5644   -1.7311   -8.0086 C   0  0  0  0  0  0  0  0  0  0  0  0
   20.8216   -2.5678   -7.8037 C   0  0  0  0  0  0  0  0  0  0  0  0
   20.6520   -3.7879   -8.6819 C   0  0  0  0  0  3  0  0  0  0  0  0
   19.5031   -4.5666   -8.1596 C   0  0  0  0  0  0  0  0  0  0  0  0
   19.8131   -5.8774   -8.1373 C   0  0  0  0  0  0  0  0  0  0  0  0
   18.8213   -6.8318   -7.6562 C   0  0  0  0  0  0  0  0  0  0  0  0
   19.0452   -8.1108   -7.6504 C   0  0  0  0  0  0  0  0  0  0  0  0
   17.9813   -9.0147   -7.1435 C   0  0  0  0  0  0  0  0  0  0  0  0
   18.3935  -10.4426   -7.3341 C   0  0  1  0  0  0  0  0  0  0  0  0
   17.1959  -11.3842   -7.3010 C   0  0  0  0  0  0  0  0  0  0  0  0
   19.0513  -10.6262   -8.6830 C   0  0  0  0  0  0  0  0  0  0  0  0
   20.4216   -9.9889   -8.7225 C   0  0  2  0  0  0  0  0  0  0  0  0
   21.3487  -10.7793   -8.0480 O   0  0  0  0  0  0  0  0  0  0  0  0
   20.3305   -8.6256   -8.1397 C   0  0  0  0  0  0  0  0  0  0  0  0
   21.3659   -7.8204   -8.0300 C   0  0  0  0  0  0  0  0  0  0  0  0
   18.1565   -4.2812   -7.6793 C   0  0  1  0  0  0  0  0  0  0  0  0
   17.8970   -5.2281   -6.4860 C   0  0  0  0  0  0  0  0  0  0  0  0
   18.5853   -4.1254   -5.6592 C   0  0  0  0  0  0  0  0  0  0  0  0
   17.9708   -3.1950   -6.7152 C   0  0  1  0  0  0  0  0  0  0  0  0
   16.5067   -3.0092   -6.3630 C   0  0  0  0  0  0  0  0  0  0  0  0
   16.4571   -2.4308   -4.9869 C   0  0  1  0  0  0  0  0  0  0  0  0
   17.1696   -3.2232   -3.9464 C   0  0  0  0  0  0  0  0  0  0  0  0
   16.2174   -4.1739   -3.2597 C   0  0  0  0  0  2  0  0  0  0  0  0
  1  2  2  0
  2  3  1  0
  3  4  2  0
  3  5  1  0
  6  5  1  1
  6  7  1  0
  7  8  1  0
  8  9  1  1
  8 10  1  0
 10 11  1  6
 11 12  1  0
 12 13  1  0
 13 14  1  0
 14 15  2  0
 15 16  1  0
 16 17  2  0
 17 18  1  0
 18 19  1  0
 19 20  1  6
 19 21  1  0
 21 22  1  0
 22 23  1  1
 22 24  1  0
 24 25  2  0
 14 26  1  0
 26 27  1  1
 27 28  1  0
 29 28  1  1
 29 30  1  0
  6 31  1  0
 31 32  1  1
 32 33  1  0
 29 10  1  0
 24 17  1  0
 29 26  1  0
 31 30  1  0
M  RAD  2  13   2  33   3
M  END
>  <docking_score>  (3) 
-1.1719999999999999

$$$$
