
     RDKit          3D

 47 47  0  0  0  0  0  0  0  0999 V2000
   14.2269   -2.0413   -8.7400 C   0  0  0  0  0  0  0  0  0  0  0  0
   14.9138   -3.3489   -8.5277 C   0  0  0  0  0  0  0  0  0  0  0  0
   16.3597   -3.1443   -8.1928 C   0  0  0  0  0  0  0  0  0  0  0  0
   14.2453   -4.1633   -7.4464 C   0  0  0  0  0  0  0  0  0  0  0  0
   14.9387   -3.9562   -6.1127 C   0  0  0  0  0  0  0  0  0  0  0  0
   15.7334   -5.1795   -5.7138 C   0  0  0  0  0  0  0  0  0  0  0  0
   16.2973   -4.9823   -4.3346 C   0  0  1  0  0  0  0  0  0  0  0  0
   15.7826   -6.0659   -3.4292 C   0  0  0  0  0  0  0  0  0  0  0  0
   17.7492   -4.7537   -4.2836 C   0  0  0  0  0  3  0  0  0  0  0  0
   18.3039   -3.7104   -5.1659 C   0  0  1  0  0  0  0  0  0  0  0  0
   18.3805   -2.4108   -4.4332 C   0  0  0  0  0  0  0  0  0  0  0  0
   18.3567   -1.2068   -5.2940 C   0  0  1  0  0  0  0  0  0  0  0  0
   17.0089   -0.7496   -5.7561 C   0  0  0  0  0  0  0  0  0  0  0  0
   16.0876   -0.3380   -4.6578 C   0  0  0  0  0  3  0  0  0  0  0  0
   15.6377   -1.5357   -3.8517 C   0  0  0  0  0  0  0  0  0  0  0  0
   15.1884   -1.0972   -2.4866 C   0  0  0  0  0  0  0  0  0  0  0  0
   19.0989   -0.0468   -4.7350 C   0  0  1  0  0  0  0  0  0  0  0  0
   20.0151   -0.4095   -3.5942 C   0  0  0  0  0  0  0  0  0  0  0  0
   19.7437   -1.8462   -3.2168 C   0  0  0  0  0  0  0  0  0  0  0  0
   19.9899   -2.0894   -1.7243 C   0  0  2  0  0  0  0  0  0  0  0  0
   18.3952   -3.2955   -0.9444 I   0  0  0  0  0  0  0  0  0  0  0  0
   19.9506   -0.7757   -0.9663 C   0  0  0  0  0  0  0  0  0  0  0  0
   19.8076    0.7704   -5.7910 C   0  0  0  0  0  0  0  0  0  0  0  0
   20.4671   -0.2251   -6.7401 C   0  0  2  0  0  0  0  0  0  0  0  0
   21.3431    0.4772   -7.7515 C   0  0  0  0  0  2  0  0  0  0  0  0
   19.3481   -0.9663   -7.4387 C   0  0  0  0  0  3  0  0  0  0  0  0
   19.8775   -1.9105   -8.2845 O   0  0  0  0  0  0  0  0  0  0  0  0
   20.6351   -2.8904   -7.6465 C   0  0  0  0  0  0  0  0  0  0  0  0
   19.6751   -3.9897   -7.2429 C   0  0  0  0  0  3  0  0  0  0  0  0
   19.5936   -4.1765   -5.7692 C   0  0  1  0  0  0  0  0  0  0  0  0
   20.7118   -3.3795   -5.0777 C   0  0  0  0  0  2  0  0  0  0  0  0
   19.8263   -5.6553   -5.4589 C   0  0  1  0  0  0  0  0  0  0  0  0
   21.3811   -5.7577   -5.9245 C   0  0  0  0  0  0  0  0  0  0  0  0
   21.3684   -6.5108   -7.2332 C   0  0  0  0  0  2  0  0  0  0  0  0
   19.9598   -5.8726   -3.9910 C   0  0  0  0  0  0  0  0  0  0  0  0
   21.2092   -6.5377   -3.5258 C   0  0  0  0  0  0  0  0  0  0  0  0
   19.2018   -6.6291   -6.2390 C   0  0  0  0  0  0  0  0  0  0  0  0
   18.0999   -7.4762   -6.2980 C   0  0  1  0  0  0  0  0  0  0  0  0
   17.8212   -7.7536   -7.8070 C   0  0  1  0  0  0  0  0  0  0  0  0
   16.8907   -6.8190   -8.4384 C   0  0  0  0  0  2  0  0  0  0  0  0
   19.1303   -7.9455   -8.5318 C   0  0  0  0  0  3  0  0  0  0  0  0
   19.3147   -9.4354   -8.7170 C   0  0  0  0  0  2  0  0  0  0  0  0
   18.0353   -8.8224   -5.6521 C   0  0  0  0  0  0  0  0  0  0  0  0
   17.1468   -9.7156   -6.5564 C   0  0  0  0  0  2  0  0  0  0  0  0
   17.3165   -8.8690   -4.3240 C   0  0  0  0  0  2  0  0  0  0  0  0
   19.3547   -9.5033   -5.5952 C   0  0  0  0  0  0  0  0  0  0  0  0
   20.3283   -8.9860   -5.1153 O   0  0  0  0  0  0  0  0  0  0  0  0
  1  2  1  0
  2  3  1  0
  2  4  1  0
  4  5  1  0
  5  6  1  0
  6  7  1  0
  7  8  1  1
  7  9  1  0
 10  9  1  1
 10 11  1  0
 11 12  1  0
 12 13  1  1
 13 14  1  0
 14 15  1  0
 15 16  1  0
 12 17  1  0
 17 18  1  1
 18 19  1  0
 19 20  1  0
 20 21  1  0
 20 22  1  1
 17 23  1  0
 23 24  1  0
 24 25  1  6
 24 26  1  0
 26 27  1  0
 27 28  1  0
 28 29  1  0
 29 30  1  0
 30 31  1  1
 30 32  1  0
 32 33  1  6
 33 34  1  0
 32 35  1  0
 35 36  1  0
 32 37  1  0
 38 37  1  6
 38 39  1  0
 39 40  1  6
 39 41  1  0
 41 42  1  0
 38 43  1  0
 43 44  1  0
 43 45  1  0
 43 46  1  0
 46 47  2  0
 30 10  1  0
M  RAD  8   9   2  14   2  25   3  26   2  29   2  31   3  34   3  40   3
M  RAD  4  41   2  42   3  44   3  45   3
M  END
>  <docking_score>  (1) 
0.22500000000000001

$$$$
