
     RDKit          3D

 19 21  0  0  0  0  0  0  0  0999 V2000
   19.1742   -4.5450   -2.5637 C   0  0  0  0  0  0  0  0  0  0  0  0
   17.9296   -3.8704   -3.1421 C   0  0  0  0  0  3  0  0  0  0  0  0
   16.6795   -4.5890   -2.7829 C   0  0  0  0  0  0  0  0  0  0  0  0
   15.7010   -4.7835   -3.8768 C   0  0  2  0  0  0  0  0  0  0  0  0
   16.1924   -5.6922   -4.9302 C   0  0  0  0  0  0  0  0  0  0  0  0
   16.2673   -6.8814   -5.0556 O   0  0  0  0  0  0  0  0  0  0  0  0
   16.5450   -4.5161   -5.7471 C   0  0  0  0  0  0  0  0  0  0  0  0
   15.6083   -3.6934   -4.8851 C   0  0  2  0  0  0  0  0  0  0  0  0
   16.1393   -2.3780   -4.4984 C   0  0  2  0  0  0  0  0  0  0  0  0
   15.6196   -1.7511   -3.2853 C   0  0  0  0  0  0  0  0  0  0  0  0
   16.5433   -2.0545   -2.1244 C   0  0  0  0  0  3  0  0  0  0  0  0
   17.8736   -2.4351   -2.6843 C   0  0  1  0  0  0  0  0  0  0  0  0
   19.0470   -1.9926   -1.8946 C   0  0  0  0  0  0  0  0  0  0  0  0
   19.5959   -0.7570   -2.5609 C   0  0  0  0  0  0  0  0  0  0  0  0
   19.5530   -0.6284   -3.8720 C   0  0  0  0  0  0  0  0  0  0  0  0
   20.0617    0.5125   -4.4641 O   0  0  0  0  0  0  0  0  0  0  0  0
   18.9685   -1.6868   -4.7214 C   0  0  0  0  0  0  0  0  0  0  0  0
   17.9246   -1.2155   -5.6357 C   0  0  0  0  0  0  0  0  0  0  0  0
   16.6332   -1.5156   -5.5549 C   0  0  0  0  0  0  0  0  0  0  0  0
  1  2  1  0
  2  3  1  0
  4  3  1  1
  4  5  1  0
  5  6  2  0
  5  7  1  0
  8  7  1  6
  8  9  1  0
  9 10  1  6
 10 11  1  0
 11 12  1  0
 12 13  1  1
 13 14  1  0
 14 15  2  3
 15 16  1  0
 15 17  1  0
 17 18  1  0
 18 19  2  3
 12  2  1  0
  8  4  1  0
 19  9  1  0
M  RAD  2   2   2  11   2
M  END
>  <docking_score>  (1) 
-6.0529999999999999

$$$$

     RDKit          3D

 19 21  0  0  0  0  0  0  0  0999 V2000
   19.3055   -4.2339   -5.6727 C   0  0  0  0  0  0  0  0  0  0  0  0
   18.0955   -4.0280   -4.7605 C   0  0  0  0  0  3  0  0  0  0  0  0
   16.8993   -4.7724   -5.2329 C   0  0  0  0  0  0  0  0  0  0  0  0
   15.6187   -4.0295   -5.2144 C   0  0  2  0  0  0  0  0  0  0  0  0
   15.5896   -2.9139   -6.1795 C   0  0  0  0  0  0  0  0  0  0  0  0
   15.3973   -2.8185   -7.3582 O   0  0  0  0  0  0  0  0  0  0  0  0
   15.8955   -1.9834   -5.0769 C   0  0  0  0  0  0  0  0  0  0  0  0
   15.4346   -3.0531   -4.1071 C   0  0  2  0  0  0  0  0  0  0  0  0
   16.2957   -3.2115   -2.9258 C   0  0  2  0  0  0  0  0  0  0  0  0
   16.2932   -4.4989   -2.2351 C   0  0  0  0  0  0  0  0  0  0  0  0
   17.4486   -5.3416   -2.7329 C   0  0  0  0  0  3  0  0  0  0  0  0
   18.4518   -4.4250   -3.3505 C   0  0  1  0  0  0  0  0  0  0  0  0
   19.8699   -4.8098   -3.1570 C   0  0  0  0  0  0  0  0  0  0  0  0
   20.4158   -3.9619   -2.0368 C   0  0  0  0  0  0  0  0  0  0  0  0
   20.0056   -2.7196   -1.8763 C   0  0  0  0  0  0  0  0  0  0  0  0
   20.5184   -1.9583   -0.8427 O   0  0  0  0  0  0  0  0  0  0  0  0
   19.0038   -2.1260   -2.7860 C   0  0  0  0  0  0  0  0  0  0  0  0
   17.8419   -1.5478   -2.1051 C   0  0  0  0  0  0  0  0  0  0  0  0
   16.6024   -2.0227   -2.1535 C   0  0  0  0  0  0  0  0  0  0  0  0
  1  2  1  0
  2  3  1  0
  4  3  1  1
  4  5  1  0
  5  6  2  0
  5  7  1  0
  8  7  1  6
  8  9  1  0
  9 10  1  1
 10 11  1  0
 11 12  1  0
 12 13  1  6
 13 14  1  0
 14 15  2  3
 15 16  1  0
 15 17  1  0
 17 18  1  0
 18 19  2  3
 12  2  1  0
  8  4  1  0
 19  9  1  0
M  RAD  2   2   2  11   2
M  END
>  <docking_score>  (2) 
-6.0510000000000002

$$$$

     RDKit          3D

 19 21  0  0  0  0  0  0  0  0999 V2000
   19.0835   -1.8908   -3.2183 C   0  0  0  0  0  0  0  0  0  0  0  0
   18.3695   -3.2430   -3.2044 C   0  0  0  0  0  3  0  0  0  0  0  0
   19.1052   -4.2617   -2.4111 C   0  0  0  0  0  0  0  0  0  0  0  0
   19.2269   -5.6037   -3.0244 C   0  0  2  0  0  0  0  0  0  0  0  0
   20.0689   -5.6057   -4.2360 C   0  0  0  0  0  0  0  0  0  0  0  0
   21.2480   -5.6219   -4.4479 O   0  0  0  0  0  0  0  0  0  0  0  0
   18.8447   -5.5794   -5.0579 C   0  0  0  0  0  0  0  0  0  0  0  0
   18.0750   -6.0643   -3.8456 C   0  0  2  0  0  0  0  0  0  0  0  0
   16.7884   -5.3850   -3.6333 C   0  0  2  0  0  0  0  0  0  0  0  0
   16.2378   -5.3525   -2.2805 C   0  0  0  0  0  0  0  0  0  0  0  0
   16.6170   -4.0479   -1.6119 C   0  0  0  0  0  3  0  0  0  0  0  0
   16.9659   -3.0684   -2.6828 C   0  0  1  0  0  0  0  0  0  0  0  0
   16.5780   -1.6638   -2.4121 C   0  0  0  0  0  0  0  0  0  0  0  0
   15.3047   -1.3956   -3.1726 C   0  0  0  0  0  0  0  0  0  0  0  0
   15.0933   -1.9605   -4.3446 C   0  0  0  0  0  0  0  0  0  0  0  0
   13.9190   -1.7017   -5.0265 O   0  0  0  0  0  0  0  0  0  0  0  0
   16.0940   -2.8682   -4.9430 C   0  0  0  0  0  0  0  0  0  0  0  0
   15.5623   -4.1784   -5.3284 C   0  0  0  0  0  0  0  0  0  0  0  0
   15.8627   -5.3352   -4.7489 C   0  0  0  0  0  0  0  0  0  0  0  0
  1  2  1  0
  2  3  1  0
  4  3  1  6
  4  5  1  0
  5  6  2  0
  5  7  1  0
  8  7  1  6
  8  9  1  0
  9 10  1  1
 10 11  1  0
 11 12  1  0
 12 13  1  1
 13 14  1  0
 14 15  2  3
 15 16  1  0
 15 17  1  0
 17 18  1  0
 18 19  2  3
 12  2  1  0
  8  4  1  0
 19  9  1  0
M  RAD  2   2   2  11   2
M  END
>  <docking_score>  (3) 
-5.7510000000000003

$$$$
