
     RDKit          3D

 63 63  0  0  0  0  0  0  0  0999 V2000
    9.4938    9.8224    8.1764 C   0  0  0  0  0  0  0  0  0  0  0  0
   10.5537   10.0520    9.0415 O   0  0  0  0  0  0  0  0  0  0  0  0
   10.0634   10.7676   10.1340 C   0  0  0  0  0  3  0  0  0  0  0  0
    8.7854   11.2650    9.8779 O   0  0  0  0  0  0  0  0  0  0  0  0
    8.2781   11.7413   11.0835 C   0  0  2  0  0  0  0  0  0  0  0  0
    6.9331   12.3931   10.9250 C   0  0  0  0  0  0  0  0  0  0  0  0
    9.3106   12.6558   11.6755 C   0  0  0  0  0  3  0  0  0  0  0  0
   10.2942   13.1940   10.6963 C   0  0  1  0  0  0  0  0  0  0  0  0
    9.6694   14.1949    9.7262 C   0  0  0  0  0  3  0  0  0  0  0  0
   10.7069   15.0469    9.0670 C   0  0  0  0  0  0  0  0  0  0  0  0
   11.0621   14.5875    7.6903 C   0  0  0  0  0  3  0  0  0  0  0  0
    9.8781   14.8494    6.7756 C   0  0  1  0  0  0  0  0  0  0  0  0
   10.4178   15.1490    5.3789 C   0  0  0  0  0  0  0  0  0  0  0  0
    9.4261   16.0631    4.7065 C   0  0  0  0  0  0  0  0  0  0  0  0
    8.1909   16.0479    5.3301 O   0  0  0  0  0  0  0  0  0  0  0  0
    9.1088   13.6057    6.7315 N   0  0  0  0  0  0  0  0  0  0  0  0
    8.0106   13.7981    5.9935 O   0  0  0  0  0  0  0  0  0  0  0  0
    7.0630   12.8527    6.3882 C   0  0  0  0  0  3  0  0  0  0  0  0
    6.2516   12.4208    5.1981 C   0  0  0  0  0  3  0  0  0  0  0  0
    6.9140   11.2405    4.5002 C   0  0  0  0  0  3  0  0  0  0  0  0
    7.0399   10.1987    5.4217 O   0  0  0  0  0  0  0  0  0  0  0  0
    8.0176    9.3669    5.0888 O   0  0  0  0  0  0  0  0  0  0  0  0
    9.0534   10.0681    4.5018 C   0  0  0  0  0  3  0  0  0  0  0  0
   10.4069    9.4592    4.7733 C   0  0  0  0  0  3  0  0  0  0  0  0
   10.6117    9.3024    6.1595 O   0  0  0  0  0  0  0  0  0  0  0  0
    9.8652   10.2880    6.7795 C   0  0  0  0  0  3  0  0  0  0  0  0
   11.3347   13.9763   11.4715 C   0  0  0  0  0  0  0  0  0  0  0  0
   10.6784   15.1577   11.8905 O   0  0  0  0  0  0  0  0  0  0  0  0
    9.5900   14.7087   12.6550 C   0  0  2  0  0  0  0  0  0  0  0  0
    9.0612   15.8029   13.5105 C   0  0  0  0  0  3  0  0  0  0  0  0
    9.0489   15.4899   14.8534 O   0  0  0  0  0  0  0  0  0  0  0  0
   10.0298   16.0587   15.4798 O   0  0  0  0  0  0  0  0  0  0  0  0
   11.2781   15.6100   15.1292 C   0  0  0  0  0  2  0  0  0  0  0  0
    9.9968   13.5168   13.3325 N   0  0  0  0  0  0  0  0  0  0  0  0
    9.3384   12.3368   12.9277 C   0  0  1  0  0  0  0  0  0  0  0  0
   10.0101   11.2148   13.3463 O   0  0  0  0  0  0  0  0  0  0  0  0
   11.2394   11.4588   13.9008 C   0  0  0  0  0  0  0  0  0  0  0  0
   12.5532   10.5393   13.1815 Cl  0  0  0  0  0  0  0  0  0  0  0  0
    7.8628   12.3329   13.1220 C   0  0  1  0  0  0  0  0  0  0  0  0
    7.5050   12.3981   14.5624 C   0  0  0  0  0  3  0  0  0  0  0  0
    8.3108   13.3050   15.4127 C   0  0  0  0  0  3  0  0  0  0  0  0
    7.5673   14.3657   16.1294 C   0  0  2  0  0  0  0  0  0  0  0  0
    7.9688   15.7308   15.7139 C   0  0  0  0  0  2  0  0  0  0  0  0
    7.3029   14.1608   17.5070 N   0  0  0  0  0  0  0  0  0  0  0  0
    6.3812   15.1005   18.0673 C   0  0  0  0  0  3  0  0  0  0  0  0
    5.1949   14.3384   18.6205 C   0  0  0  0  0  3  0  0  0  0  0  0
    4.2205   14.0721   17.5040 C   0  0  0  0  0  3  0  0  0  0  0  0
    3.3148   12.8911   17.8178 C   0  0  0  0  0  3  0  0  0  0  0  0
    2.3322   12.7416   16.8152 O   0  0  0  0  0  0  0  0  0  0  0  0
    7.2699   13.5307   12.4119 C   0  0  0  0  0  3  0  0  0  0  0  0
    7.1410   14.7346   13.3223 C   0  0  0  0  0  3  0  0  0  0  0  0
    5.7253   15.2803   13.1666 C   0  0  0  0  0  3  0  0  0  0  0  0
    4.9662   14.4986   12.1189 C   0  0  0  0  0  3  0  0  0  0  0  0
    3.7456   13.4361   12.8997 S   0  0  0  0  0  0  0  0  0  0  0  0
    4.2277   11.7035   12.9090 C   0  0  0  0  0  0  0  0  0  0  0  0
    3.1799   10.8170   13.5455 C   0  0  0  0  0  3  0  0  0  0  0  0
    3.1021    9.5325   12.7386 C   0  0  0  0  0  0  0  0  0  0  0  0
    4.0944    8.5384   13.3046 C   0  0  1  0  0  0  0  0  0  0  0  0
    5.0243    8.0801   12.3123 N   0  0  0  0  0  0  0  0  0  0  0  0
    5.4487    8.9024   11.2625 N   0  0  0  0  0  0  0  0  0  0  0  0
    6.5862    9.4880   11.3715 N   0  0  0  0  0  0  0  0  0  0  0  0
    4.7746    9.1325   14.5178 C   0  0  0  0  0  3  0  0  0  0  0  0
    3.8048    9.0744   15.6840 C   0  0  0  0  0  2  0  0  0  0  0  0
  1  2  1  0
  2  3  1  0
  3  4  1  0
  4  5  1  0
  5  6  1  6
  5  7  1  0
  7  8  1  0
  8  9  1  0
  9 10  1  0
 10 11  1  0
 11 12  1  0
 12 13  1  6
 13 14  1  0
 14 15  1  0
 12 16  1  0
 16 17  1  0
 17 18  1  0
 18 19  1  0
 19 20  1  0
 20 21  1  0
 21 22  1  0
 22 23  1  0
 23 24  1  0
 24 25  1  0
 25 26  1  0
  8 27  1  1
 27 28  1  0
 28 29  1  0
 29 30  1  1
 30 31  1  0
 31 32  1  0
 32 33  1  0
 29 34  1  0
 35 34  1  1
 35 36  1  0
 36 37  1  0
 37 38  1  0
 35 39  1  0
 39 40  1  1
 40 41  1  0
 41 42  1  0
 42 43  1  1
 42 44  1  0
 44 45  1  0
 45 46  1  0
 46 47  1  0
 47 48  1  0
 48 49  1  0
 39 50  1  0
 50 51  1  0
 51 52  1  0
 52 53  1  0
 53 54  1  0
 54 55  1  0
 55 56  1  0
 56 57  1  0
 58 57  1  6
 58 59  1  0
 59 60  1  0
 60 61  2  0
 58 62  1  0
 62 63  1  0
 26  1  1  0
M  RAD  8   3   2   7   2   9   2  11   2  18   2  19   2  20   2  23   2
M  RAD  8  24   2  26   2  30   2  33   3  40   2  41   2  43   3  45   2
M  RAD  8  46   2  47   2  48   2  50   2  51   2  52   2  53   2  56   2
M  RAD  2  62   2  63   3
M  END
>  <docking_score>  (1) 
33.268999999999998

$$$$
