
     RDKit          3D

 24 25  0  0  0  0  0  0  0  0999 V2000
   16.0667   -5.5293   -8.4460 C   0  0  0  0  0  0  0  0  0  0  0  0
   16.6134   -6.5983   -7.5268 C   0  0  1  0  0  0  0  0  0  0  0  0
   17.9967   -7.0456   -8.0043 C   0  0  0  0  0  0  0  0  0  0  0  0
   18.4677   -8.0997   -7.0292 C   0  0  2  0  0  0  0  0  0  0  0  0
   17.5052   -9.1152   -6.9788 O   0  0  0  0  0  0  0  0  0  0  0  0
   18.6443   -7.4750   -5.6546 C   0  0  2  0  0  0  0  0  0  0  0  0
   19.1982   -8.3967   -4.7773 O   0  0  0  0  0  0  0  0  0  0  0  0
   17.2341   -7.1086   -5.1821 C   0  0  1  0  0  0  0  0  0  0  0  0
   17.2679   -6.5076   -3.9198 O   0  0  0  0  0  0  0  0  0  0  0  0
   16.7423   -6.0411   -6.1471 C   0  0  1  0  0  0  0  0  0  0  0  0
   17.7397   -4.9898   -6.1395 N   0  0  0  0  0  0  0  0  0  0  0  0
   17.2234   -3.8776   -5.4066 C   0  0  0  0  0  3  0  0  0  0  0  0
   18.2604   -3.1232   -4.6361 C   0  0  2  0  0  0  0  0  0  0  0  0
   18.4969   -1.7426   -5.2063 C   0  0  0  0  0  0  0  0  0  0  0  0
   19.4975   -3.7674   -4.5885 O   0  0  0  0  0  0  0  0  0  0  0  0
   20.2023   -3.1305   -3.5407 C   0  0  0  0  0  0  0  0  0  0  0  0
   19.8364   -3.8403   -2.2739 C   0  0  0  0  0  0  0  0  0  0  0  0
   19.4654   -3.0109   -1.2409 O   0  0  0  0  0  0  0  0  0  0  0  0
   19.0985   -1.7403   -1.6232 C   0  0  1  0  0  0  0  0  0  0  0  0
   20.1585   -1.0006   -2.1587 O   0  0  0  0  0  0  0  0  0  0  0  0
   17.9538   -1.6951   -2.5925 C   0  0  2  0  0  0  0  0  0  0  0  0
   16.7927   -1.3629   -1.8991 O   0  0  0  0  0  0  0  0  0  0  0  0
   17.7767   -3.0568   -3.1879 C   0  0  1  0  0  0  0  0  0  0  0  0
   16.4778   -3.5044   -3.0553 O   0  0  0  0  0  0  0  0  0  0  0  0
  2  1  1  6
  2  3  1  0
  3  4  1  0
  4  5  1  1
  4  6  1  0
  6  7  1  1
  6  8  1  0
  8  9  1  1
  8 10  1  0
 10 11  1  6
 11 12  1  0
 12 13  1  0
 13 14  1  6
 13 15  1  0
 15 16  1  0
 16 17  1  0
 17 18  1  0
 18 19  1  0
 19 20  1  6
 19 21  1  0
 21 22  1  1
 21 23  1  0
 23 24  1  6
 10  2  1  0
 23 13  1  0
M  RAD  1  12   2
M  END
>  <docking_score>  (1) 
-4.2210000000000001

$$$$

     RDKit          3D

 24 25  0  0  0  0  0  0  0  0999 V2000
   15.4887   -2.5301   -8.2555 C   0  0  0  0  0  0  0  0  0  0  0  0
   15.4432   -1.8206   -6.9208 C   0  0  1  0  0  0  0  0  0  0  0  0
   14.2646   -2.3349   -6.0915 C   0  0  0  0  0  0  0  0  0  0  0  0
   14.3019   -1.5842   -4.7804 C   0  0  2  0  0  0  0  0  0  0  0  0
   14.2731   -0.2121   -5.0570 O   0  0  0  0  0  0  0  0  0  0  0  0
   15.5737   -1.9417   -4.0283 C   0  0  2  0  0  0  0  0  0  0  0  0
   15.5635   -1.3620   -2.7675 O   0  0  0  0  0  0  0  0  0  0  0  0
   16.7216   -1.3481   -4.8506 C   0  0  1  0  0  0  0  0  0  0  0  0
   17.9583   -1.6252   -4.2594 O   0  0  0  0  0  0  0  0  0  0  0  0
   16.7075   -2.0958   -6.1748 C   0  0  1  0  0  0  0  0  0  0  0  0
   16.7824   -3.5063   -5.8506 N   0  0  0  0  0  0  0  0  0  0  0  0
   18.0883   -3.9810   -6.1823 C   0  0  0  0  0  3  0  0  0  0  0  0
   18.3742   -5.3657   -5.6933 C   0  0  2  0  0  0  0  0  0  0  0  0
   17.4919   -6.3960   -6.3620 C   0  0  0  0  0  0  0  0  0  0  0  0
   18.2109   -5.5146   -4.3153 O   0  0  0  0  0  0  0  0  0  0  0  0
   18.8724   -6.7234   -3.9964 C   0  0  0  0  0  0  0  0  0  0  0  0
   20.3081   -6.3814   -3.7423 C   0  0  0  0  0  0  0  0  0  0  0  0
   21.2114   -7.1784   -4.4066 O   0  0  0  0  0  0  0  0  0  0  0  0
   20.6938   -7.8689   -5.4792 C   0  0  1  0  0  0  0  0  0  0  0  0
   19.7489   -8.8316   -5.1080 O   0  0  0  0  0  0  0  0  0  0  0  0
   20.0876   -6.9963   -6.5389 C   0  0  2  0  0  0  0  0  0  0  0  0
   20.9900   -6.8795   -7.5932 O   0  0  0  0  0  0  0  0  0  0  0  0
   19.8543   -5.6349   -5.9623 C   0  0  1  0  0  0  0  0  0  0  0  0
   20.4265   -4.6487   -6.7402 O   0  0  0  0  0  0  0  0  0  0  0  0
  2  1  1  6
  2  3  1  0
  3  4  1  0
  4  5  1  6
  4  6  1  0
  6  7  1  1
  6  8  1  0
  8  9  1  1
  8 10  1  0
 10 11  1  1
 11 12  1  0
 12 13  1  0
 13 14  1  6
 13 15  1  0
 15 16  1  0
 16 17  1  0
 17 18  1  0
 18 19  1  0
 19 20  1  1
 19 21  1  0
 21 22  1  6
 21 23  1  0
 23 24  1  6
 10  2  1  0
 23 13  1  0
M  RAD  1  12   2
M  END
>  <docking_score>  (2) 
-3.5459999999999998

$$$$

     RDKit          3D

 24 25  0  0  0  0  0  0  0  0999 V2000
    3.3781   13.8122    3.4217 C   0  0  0  0  0  0  0  0  0  0  0  0
    4.8386   13.5784    3.1071 C   0  0  1  0  0  0  0  0  0  0  0  0
    5.7177   14.4262    4.0291 C   0  0  0  0  0  0  0  0  0  0  0  0
    7.1502   14.1242    3.6539 C   0  0  2  0  0  0  0  0  0  0  0  0
    7.3113   14.3806    2.2870 O   0  0  0  0  0  0  0  0  0  0  0  0
    7.4554   12.6655    3.9541 C   0  0  2  0  0  0  0  0  0  0  0  0
    8.8006   12.4032    3.7365 O   0  0  0  0  0  0  0  0  0  0  0  0
    6.6135   11.8543    2.9645 C   0  0  1  0  0  0  0  0  0  0  0  0
    6.8016   10.4814    3.1529 O   0  0  0  0  0  0  0  0  0  0  0  0
    5.1646   12.1379    3.3292 C   0  0  1  0  0  0  0  0  0  0  0  0
    5.0257   11.8202    4.7362 N   0  0  0  0  0  0  0  0  0  0  0  0
    3.9939   10.8432    4.8827 C   0  0  0  0  0  3  0  0  0  0  0  0
    4.1969    9.9131    6.0368 C   0  0  2  0  0  0  0  0  0  0  0  0
    5.6401    9.8757    6.4872 C   0  0  0  0  0  0  0  0  0  0  0  0
    3.8149    8.5982    5.7664 O   0  0  0  0  0  0  0  0  0  0  0  0
    3.7142    7.9779    7.0335 C   0  0  0  0  0  0  0  0  0  0  0  0
    2.3252    8.2294    7.5334 C   0  0  0  0  0  0  0  0  0  0  0  0
    2.2591    8.7013    8.8240 O   0  0  0  0  0  0  0  0  0  0  0  0
    3.4305    9.2445    9.3015 C   0  0  1  0  0  0  0  0  0  0  0  0
    4.4558    8.3026    9.4404 O   0  0  0  0  0  0  0  0  0  0  0  0
    3.9521   10.3940    8.4900 C   0  0  2  0  0  0  0  0  0  0  0  0
    3.6331   11.5830    9.1412 O   0  0  0  0  0  0  0  0  0  0  0  0
    3.2715   10.3868    7.1570 C   0  0  1  0  0  0  0  0  0  0  0  0
    2.6985   11.6097    6.8723 O   0  0  0  0  0  0  0  0  0  0  0  0
  2  1  1  1
  2  3  1  0
  3  4  1  0
  4  5  1  6
  4  6  1  0
  6  7  1  6
  6  8  1  0
  8  9  1  1
  8 10  1  0
 10 11  1  1
 11 12  1  0
 12 13  1  0
 13 14  1  1
 13 15  1  0
 15 16  1  0
 16 17  1  0
 17 18  1  0
 18 19  1  0
 19 20  1  6
 19 21  1  0
 21 22  1  1
 21 23  1  0
 23 24  1  6
 10  2  1  0
 23 13  1  0
M  RAD  1  12   2
M  END
>  <docking_score>  (3) 
-3.3730000000000002

$$$$
