
     RDKit          3D

 47 52  0  0  0  0  0  0  0  0999 V2000
    4.9014    7.6469    6.8812 C   0  0  0  0  0  0  0  0  0  0  0  0
    5.5835    8.3831    5.7760 C   0  0  1  0  0  0  0  0  0  0  0  0
    4.8421    8.3823    4.4800 C   0  0  0  0  0  0  0  0  0  0  0  0
    6.1401    9.7120    6.1626 C   0  0  0  0  0  0  0  0  0  0  0  0
    6.3160   10.6553    5.0191 C   0  0  2  0  0  0  0  0  0  0  0  0
    7.6049   10.4985    4.2780 C   0  0  0  0  0  0  0  0  0  0  0  0
    8.7332   11.3213    4.8448 C   0  0  1  0  0  0  0  0  0  0  0  0
    9.6472   10.4063    5.6093 C   0  0  0  0  0  0  0  0  0  0  0  0
    9.4332   11.9968    3.6857 C   0  0  0  0  0  3  0  0  0  0  0  0
   10.5613   12.8792    4.1059 C   0  0  0  0  0  0  0  0  0  0  0  0
   10.3770   14.3148    3.7036 C   0  0  2  0  0  0  0  0  0  0  0  0
    9.0025   14.8375    4.0992 C   0  0  0  0  0  3  0  0  0  0  0  0
    8.8542   16.0728    3.2403 C   0  0  0  0  0  0  0  0  0  0  0  0
    9.1369   15.3242    5.5450 C   0  0  0  0  0  3  0  0  0  0  0  0
    7.8204   15.8692    5.9902 C   0  0  0  0  0  0  0  0  0  0  0  0
    7.1543   14.9632    6.9717 C   0  0  1  0  0  0  0  0  0  0  0  0
    5.7070   15.3032    7.0752 C   0  0  0  0  0  3  0  0  0  0  0  0
    7.4487   13.5149    6.7868 C   0  0  0  0  0  3  0  0  0  0  0  0
    7.1401   12.9980    5.4055 C   0  0  0  0  0  0  0  0  0  0  0  0
    5.9760   12.0635    5.3801 C   0  0  1  0  0  0  0  0  0  0  0  0
    4.9781   12.5845    4.3518 C   0  0  0  0  0  0  0  0  0  0  0  0
    5.5590   13.5494    3.5224 O   0  0  0  0  0  0  0  0  0  0  0  0
    6.3511   12.9916    2.5349 C   0  0  0  0  0  0  0  0  0  0  0  0
    6.6571   14.0580    1.5043 C   0  0  2  0  0  0  0  0  0  0  0  0
    5.9516   13.7294    0.3445 O   0  0  0  0  0  0  0  0  0  0  0  0
    8.1196   14.0887    1.1403 C   0  0  0  0  0  3  0  0  0  0  0  0
    8.6055   15.5067    0.8874 C   0  0  0  0  0  0  0  0  0  0  0  0
    9.6219   15.8144    1.9695 C   0  0  2  0  0  0  0  0  0  0  0  0
   10.4003   14.5157    2.2057 C   0  0  0  0  0  3  0  0  0  0  0  0
    5.3444   12.0476    6.7698 C   0  0  0  0  0  3  0  0  0  0  0  0
    4.4332   13.2424    6.8550 C   0  0  2  0  0  0  0  0  0  0  0  0
    4.9108   14.2633    7.8538 C   0  0  1  0  0  0  0  0  0  0  0  0
    5.8298   13.6575    8.8919 C   0  0  0  0  0  0  0  0  0  0  0  0
    5.1705   13.8269   10.2444 C   0  0  1  0  0  0  0  0  0  0  0  0
    4.8556   15.2756   10.5479 C   0  0  0  0  0  0  0  0  0  0  0  0
    3.9321   12.9565   10.2608 C   0  0  2  0  0  0  0  0  0  0  0  0
    2.7939   13.6593   10.9718 C   0  0  0  0  0  0  0  0  0  0  0  0
    4.2243   11.3582   11.0475 S   0  0  0  0  0  0  0  0  0  0  0  0
    4.5030   10.0370    9.8669 C   0  0  0  0  0  0  0  0  0  0  0  0
    3.3574    9.0368    9.9711 C   0  0  0  0  0  3  0  0  0  0  0  0
    3.5640    7.8984    8.9679 C   0  0  0  0  0  0  0  0  0  0  0  0
    3.9895    8.5170    7.6802 C   0  0  2  0  0  0  0  0  0  0  0  0
    2.8187    9.0527    6.8874 C   0  0  0  0  0  0  0  0  0  0  0  0
    3.1012   10.4584    6.4843 C   0  0  0  0  0  0  0  0  0  0  0  0
    2.7692   11.4502    7.3018 C   0  0  0  0  0  0  0  0  0  0  0  0
    2.9897   12.8696    7.0288 C   0  0  2  0  0  0  0  0  0  0  0  0
    2.2577   13.3356    5.7696 C   0  0  0  0  0  2  0  0  0  0  0  0
  1  2  1  0
  2  3  1  6
  2  4  1  0
  5  4  1  1
  5  6  1  0
  6  7  1  0
  7  8  1  6
  7  9  1  0
  9 10  1  0
 11 10  1  6
 11 12  1  0
 12 13  1  0
 12 14  1  0
 14 15  1  0
 15 16  1  0
 16 17  1  6
 16 18  1  0
 18 19  1  0
 19 20  1  0
 20 21  1  6
 21 22  1  0
 22 23  1  0
 23 24  1  0
 24 25  1  6
 24 26  1  0
 26 27  1  0
 28 27  1  6
 28 29  1  0
 20 30  1  0
 31 30  1  1
 31 32  1  0
 32 33  1  1
 33 34  1  0
 34 35  1  6
 34 36  1  0
 36 37  1  1
 36 38  1  0
 38 39  1  0
 39 40  1  0
 40 41  1  0
 42 41  1  1
 42 43  1  0
 43 44  1  0
 44 45  2  3
 45 46  1  0
 46 47  1  6
 42  1  1  0
 20  5  1  0
 29 11  1  0
 28 13  1  0
 32 17  1  0
 46 31  1  0
M  RAD  8   9   2  12   2  14   2  17   2  18   2  26   2  29   2  30   2
M  RAD  2  40   2  47   3
M  END
>  <docking_score>  (1) 
10.965999999999999

$$$$
