
     RDKit          3D

  5  4  0  0  0  0  0  0  0  0999 V2000
    6.9401    2.2706   -4.4996 F   0  0  0  0  0  0  0  0  0  0  0  0
    6.3965    1.8024   -5.6339 C   0  0  0  0  0  0  0  0  0  0  0  0
    5.4155    2.4024   -6.1148 O   0  0  0  0  0  0  0  0  0  0  0  0
    6.9246    0.6580   -6.2657 N   0  0  0  0  0  0  0  0  0  0  0  0
    6.7230    0.5549   -7.5125 O   0  0  0  0  0  0  0  0  0  0  0  0
  1  2  1  0
  2  3  2  0
  2  4  1  0
  4  5  2  0
M  END
>  <docking_score>  (1) 
-2.835

$$$$

     RDKit          3D

  5  4  0  0  0  0  0  0  0  0999 V2000
    6.5175   -2.0473   -4.7719 F   0  0  0  0  0  0  0  0  0  0  0  0
    5.7440   -2.1211   -5.8662 C   0  0  0  0  0  0  0  0  0  0  0  0
    5.5471   -1.0823   -6.5262 O   0  0  0  0  0  0  0  0  0  0  0  0
    5.1680   -3.3468   -6.2587 N   0  0  0  0  0  0  0  0  0  0  0  0
    5.6947   -3.9276   -7.2541 O   0  0  0  0  0  0  0  0  0  0  0  0
  1  2  1  0
  2  3  2  0
  2  4  1  0
  4  5  2  0
M  END
>  <docking_score>  (2) 
-2.7160000000000002

$$$$

     RDKit          3D

  5  4  0  0  0  0  0  0  0  0999 V2000
    5.8269    1.2068   -6.6497 F   0  0  0  0  0  0  0  0  0  0  0  0
    6.0012    0.0012   -7.2133 C   0  0  0  0  0  0  0  0  0  0  0  0
    6.4666   -0.0533   -8.3682 O   0  0  0  0  0  0  0  0  0  0  0  0
    5.6650   -1.1755   -6.5132 N   0  0  0  0  0  0  0  0  0  0  0  0
    6.5497   -1.6461   -5.7377 O   0  0  0  0  0  0  0  0  0  0  0  0
  1  2  1  0
  2  3  2  0
  2  4  1  0
  4  5  2  0
M  END
>  <docking_score>  (3) 
-2.5680000000000001

$$$$
