
     RDKit          3D

 23 25  0  0  0  0  0  0  0  0999 V2000
    4.7769    7.7029    5.6034 C   0  0  0  0  0  0  0  0  0  0  0  0
    4.1935    8.0796    6.8632 O   0  0  0  0  0  0  0  0  0  0  0  0
    3.3156    9.1258    7.1029 C   0  0  0  0  0  0  0  0  0  0  0  0
    3.3804   10.4038    6.7823 C   0  0  0  0  0  0  0  0  0  0  0  0
    4.2541   11.3309    6.1040 C   0  0  0  0  0  0  0  0  0  0  0  0
    5.4549   11.2086    5.4824 C   0  0  0  0  0  0  0  0  0  0  0  0
    5.9608   12.3836    4.9482 C   0  0  0  0  0  0  0  0  0  0  0  0
    6.2121   13.1149    3.9822 C   0  0  0  0  0  0  0  0  0  0  0  0
    6.8613   14.3752    4.4379 C   0  0  0  0  0  0  0  0  0  0  0  0
    7.1250   14.9163    5.6132 C   0  0  0  0  0  0  0  0  0  0  0  0
    6.9082   14.5406    6.9786 N   0  0  0  0  0  2  0  0  0  0  0  0
    7.7427   16.0749    4.9635 C   0  0  0  0  0  0  0  0  0  0  0  0
    7.4639   15.5055    3.7900 C   0  0  0  0  0  0  0  0  0  0  0  0
    7.6815   15.8878    2.3727 C   0  0  0  0  0  0  0  0  0  0  0  0
    8.1010   14.8004    1.4923 C   0  0  0  0  0  0  0  0  0  0  0  0
    7.6726   13.6485    1.1107 N   0  0  0  0  0  0  0  0  0  0  0  0
    6.4863   12.9576    1.4689 N   0  0  0  0  0  3  0  0  0  0  0  0
    5.8812   12.7300    2.6070 C   0  0  0  0  0  0  0  0  0  0  0  0
    4.6232   11.9524    2.5220 C   0  0  0  0  0  0  0  0  0  0  0  0
    6.2461    9.9308    5.3563 C   0  0  0  0  0  0  0  0  0  0  0  0
    5.4043    8.8321    4.9842 N   0  0  0  0  0  4  0  0  0  0  0  0
    5.1368    8.8738    3.7411 C   0  0  0  0  0  0  0  0  0  0  0  0
    4.2897    7.8609    3.1042 C   0  0  0  0  0  0  0  0  0  0  0  0
  1  2  1  0
  2  3  1  0
  3  4  2  3
  4  5  1  0
  5  6  2  3
  6  7  1  0
  7  8  2  3
  8  9  1  0
  9 10  2  0
 10 11  1  0
 10 12  1  0
 12 13  2  0
 13 14  1  0
 14 15  1  0
 15 16  2  3
 16 17  1  0
 17 18  2  3
 18 19  1  0
  6 20  1  0
 20 21  1  0
 21 22  2  3
 22 23  1  0
 21  1  1  0
 18  8  1  0
 13  9  1  0
M  CHG  2  17   1  21   1
M  RAD  2  11   2  17   2
M  END
>  <docking_score>  (1) 
-5.2530000000000001

$$$$

     RDKit          3D

 23 25  0  0  0  0  0  0  0  0999 V2000
   16.8890   -6.2516   -6.7806 C   0  0  0  0  0  0  0  0  0  0  0  0
   16.4199   -6.9713   -5.6268 O   0  0  0  0  0  0  0  0  0  0  0  0
   15.7239   -6.4585   -4.5427 C   0  0  0  0  0  0  0  0  0  0  0  0
   15.9729   -5.4246   -3.7621 C   0  0  0  0  0  0  0  0  0  0  0  0
   16.9524   -4.3785   -3.5909 C   0  0  0  0  0  0  0  0  0  0  0  0
   18.0950   -4.0441   -4.2435 C   0  0  0  0  0  0  0  0  0  0  0  0
   18.7552   -2.9346   -3.7385 C   0  0  0  0  0  0  0  0  0  0  0  0
   19.1187   -1.7553   -3.8293 C   0  0  0  0  0  0  0  0  0  0  0  0
   19.9074   -1.3594   -2.6298 C   0  0  0  0  0  0  0  0  0  0  0  0
   20.2070   -1.9341   -1.4794 C   0  0  0  0  0  0  0  0  0  0  0  0
   19.9119   -3.1933   -0.8630 N   0  0  0  0  0  2  0  0  0  0  0  0
   20.9790   -0.7581   -1.0702 C   0  0  0  0  0  0  0  0  0  0  0  0
   20.6608   -0.2014   -2.2398 C   0  0  0  0  0  0  0  0  0  0  0  0
   20.9587    1.1014   -2.8848 C   0  0  0  0  0  0  0  0  0  0  0  0
   21.2621    1.0341   -4.3120 C   0  0  0  0  0  0  0  0  0  0  0  0
   20.7040    0.6295   -5.3987 N   0  0  0  0  0  0  0  0  0  0  0  0
   19.4329    0.0312   -5.5974 N   0  0  0  0  0  3  0  0  0  0  0  0
   18.7766   -0.9217   -4.9855 C   0  0  0  0  0  0  0  0  0  0  0  0
   17.4346   -1.2308   -5.5313 C   0  0  0  0  0  0  0  0  0  0  0  0
   18.6740   -4.7830   -5.4240 C   0  0  0  0  0  0  0  0  0  0  0  0
   17.6589   -5.1115   -6.3811 N   0  0  0  0  0  4  0  0  0  0  0  0
   17.3532   -4.0918   -7.0776 C   0  0  0  0  0  0  0  0  0  0  0  0
   16.3360   -4.1592   -8.1311 C   0  0  0  0  0  0  0  0  0  0  0  0
  1  2  1  0
  2  3  1  0
  3  4  2  3
  4  5  1  0
  5  6  2  3
  6  7  1  0
  7  8  2  3
  8  9  1  0
  9 10  2  0
 10 11  1  0
 10 12  1  0
 12 13  2  0
 13 14  1  0
 14 15  1  0
 15 16  2  3
 16 17  1  0
 17 18  2  3
 18 19  1  0
  6 20  1  0
 20 21  1  0
 21 22  2  3
 22 23  1  0
 21  1  1  0
 18  8  1  0
 13  9  1  0
M  CHG  2  17   1  21   1
M  RAD  2  11   2  17   2
M  END
>  <docking_score>  (2) 
-5.1449999999999996

$$$$

     RDKit          3D

 23 25  0  0  0  0  0  0  0  0999 V2000
   21.0398   -8.0867   -6.1634 C   0  0  0  0  0  0  0  0  0  0  0  0
   21.0557   -8.1652   -4.7271 O   0  0  0  0  0  0  0  0  0  0  0  0
   19.9618   -8.2030   -3.8759 C   0  0  0  0  0  0  0  0  0  0  0  0
   18.8988   -7.4262   -3.7940 C   0  0  0  0  0  0  0  0  0  0  0  0
   18.3263   -6.2644   -4.4308 C   0  0  0  0  0  0  0  0  0  0  0  0
   18.7175   -5.4655   -5.4565 C   0  0  0  0  0  0  0  0  0  0  0  0
   17.8479   -4.4282   -5.7560 C   0  0  0  0  0  0  0  0  0  0  0  0
   17.2555   -3.3869   -5.4463 C   0  0  0  0  0  0  0  0  0  0  0  0
   16.4025   -2.9179   -6.5732 C   0  0  0  0  0  0  0  0  0  0  0  0
   16.2232   -3.2939   -7.8263 C   0  0  0  0  0  0  0  0  0  0  0  0
   16.7642   -4.3182   -8.6692 N   0  0  0  0  0  2  0  0  0  0  0  0
   15.2308   -2.2343   -8.0231 C   0  0  0  0  0  0  0  0  0  0  0  0
   15.4319   -1.8759   -6.7542 C   0  0  0  0  0  0  0  0  0  0  0  0
   14.8794   -0.8160   -5.8746 C   0  0  0  0  0  0  0  0  0  0  0  0
   14.5968   -1.2306   -4.5028 C   0  0  0  0  0  0  0  0  0  0  0  0
   15.2256   -1.7303   -3.4973 N   0  0  0  0  0  0  0  0  0  0  0  0
   16.5910   -2.0949   -3.3713 N   0  0  0  0  0  3  0  0  0  0  0  0
   17.4244   -2.7554   -4.1342 C   0  0  0  0  0  0  0  0  0  0  0  0
   18.8016   -2.8994   -3.6079 C   0  0  0  0  0  0  0  0  0  0  0  0
   19.9929   -5.6209   -6.2462 C   0  0  0  0  0  0  0  0  0  0  0  0
   20.2245   -6.9913   -6.5963 N   0  0  0  0  0  4  0  0  0  0  0  0
   19.4905   -7.3331   -7.5776 C   0  0  0  0  0  0  0  0  0  0  0  0
   19.5340   -8.6893   -8.1325 C   0  0  0  0  0  0  0  0  0  0  0  0
  1  2  1  0
  2  3  1  0
  3  4  2  3
  4  5  1  0
  5  6  2  3
  6  7  1  0
  7  8  2  3
  8  9  1  0
  9 10  2  0
 10 11  1  0
 10 12  1  0
 12 13  2  0
 13 14  1  0
 14 15  1  0
 15 16  2  3
 16 17  1  0
 17 18  2  3
 18 19  1  0
  6 20  1  0
 20 21  1  0
 21 22  2  3
 22 23  1  0
 21  1  1  0
 18  8  1  0
 13  9  1  0
M  CHG  2  17   1  21   1
M  RAD  2  11   2  17   2
M  END
>  <docking_score>  (3) 
-4.7839999999999998

$$$$
