
     RDKit          3D

 32 33  0  0  0  0  0  0  0  0999 V2000
    8.9833   12.7101    4.5534 C   0  0  0  0  0  0  0  0  0  0  0  0
    8.1990   14.0093    4.7978 C   0  0  1  0  0  0  0  0  0  0  0  0
    8.8965   15.1639    4.1082 C   0  0  0  0  0  0  0  0  0  0  0  0
    9.0002   14.9478    2.6125 C   0  0  2  0  0  0  0  0  0  0  0  0
    9.6293   16.0521    2.0447 O   0  0  0  0  0  0  0  0  0  0  0  0
    7.5658   14.8774    2.0990 C   0  0  2  0  0  0  0  0  0  0  0  0
    6.9109   16.0737    2.3414 O   0  0  0  0  0  0  0  0  0  0  0  0
    6.8681   13.6963    2.6986 C   0  0  1  0  0  0  0  0  0  0  0  0
    7.6454   12.5576    2.3911 O   0  0  0  0  0  0  0  0  0  0  0  0
    6.8306   13.7435    4.2117 C   0  0  1  0  0  0  0  0  0  0  0  0
    6.4277   12.4127    4.6191 N   0  0  0  0  0  0  0  0  0  0  0  0
    5.0124   12.2583    4.8410 C   0  0  0  0  0  3  0  0  0  0  0  0
    4.6095   10.9609    4.1984 C   0  0  2  0  0  0  0  0  0  0  0  0
    5.8106   10.0552    4.1682 C   0  0  0  0  0  0  0  0  0  0  0  0
    6.4712   10.3423    5.3967 O   0  0  0  0  0  0  0  0  0  0  0  0
    7.2443    9.2753    5.7091 N   0  0  0  0  0  0  0  0  0  0  0  0
    4.0288   11.0655    2.9578 O   0  0  0  0  0  0  0  0  0  0  0  0
    4.1328    9.8862    2.3890 O   0  0  0  0  0  0  0  0  0  0  0  0
    3.2742    8.9566    2.9802 C   0  0  1  0  0  0  0  0  0  0  0  0
    3.6261    7.7234    2.4341 O   0  0  0  0  0  0  0  0  0  0  0  0
    3.4248    8.8680    4.4697 C   0  0  2  0  0  0  0  0  0  0  0  0
    2.2971    8.1948    4.9696 O   0  0  0  0  0  0  0  0  0  0  0  0
    3.4955   10.2880    5.0658 C   0  0  1  0  0  0  0  0  0  0  0  0
    4.0187   10.2436    6.3722 O   0  0  0  0  0  0  0  0  0  0  0  0
    3.6203    9.0608    6.8628 O   0  0  0  0  0  0  0  0  0  0  0  0
    3.1128    9.2823    8.0930 N   0  0  0  0  0  0  0  0  0  0  0  0
    3.5228   10.5183    8.5633 O   0  0  0  0  0  0  0  0  0  0  0  0
    3.8698   10.4700    9.8981 C   0  0  0  0  0  3  0  0  0  0  0  0
    5.1095    9.8565   10.1006 O   0  0  0  0  0  0  0  0  0  0  0  0
    5.2546    9.5087   11.7779 S   0  0  0  0  0  0  0  0  0  0  0  0
    5.8478   10.8786   12.6359 O   0  0  0  0  0  0  0  0  0  0  0  0
    6.1097   11.8591   11.8085 O   0  0  0  0  0  0  0  0  0  0  0  0
  2  1  1  6
  2  3  1  0
  3  4  1  0
  4  5  1  6
  4  6  1  0
  6  7  1  1
  6  8  1  0
  8  9  1  1
  8 10  1  0
 10 11  1  1
 11 12  1  0
 13 12  1  1
 13 14  1  0
 14 15  1  0
 15 16  1  0
 13 17  1  0
 17 18  1  0
 18 19  1  0
 19 20  1  6
 19 21  1  0
 21 22  1  1
 21 23  1  0
 23 24  1  1
 24 25  1  0
 25 26  1  0
 26 27  1  0
 27 28  1  0
 28 29  1  0
 29 30  1  0
 30 31  1  0
 31 32  1  0
 10  2  1  0
 23 13  1  0
M  RAD  2  12   2  28   2
M  END
>  <docking_score>  (1) 
-2.5670000000000002

$$$$

     RDKit          3D

 32 33  0  0  0  0  0  0  0  0999 V2000
   15.2619   -3.7897   -4.6011 C   0  0  0  0  0  0  0  0  0  0  0  0
   14.6327   -2.8170   -5.6114 C   0  0  1  0  0  0  0  0  0  0  0  0
   13.7211   -1.8478   -4.8870 C   0  0  0  0  0  0  0  0  0  0  0  0
   14.4709   -1.0353   -3.8514 C   0  0  2  0  0  0  0  0  0  0  0  0
   13.5796   -0.1556   -3.2437 O   0  0  0  0  0  0  0  0  0  0  0  0
   15.5113   -0.2306   -4.6234 C   0  0  2  0  0  0  0  0  0  0  0  0
   14.8884    0.6296   -5.5127 O   0  0  0  0  0  0  0  0  0  0  0  0
   16.4812   -1.1575   -5.2878 C   0  0  1  0  0  0  0  0  0  0  0  0
   17.0251   -1.9802   -4.2766 O   0  0  0  0  0  0  0  0  0  0  0  0
   15.8110   -2.1164   -6.2495 C   0  0  1  0  0  0  0  0  0  0  0  0
   16.8152   -3.1194   -6.5406 N   0  0  0  0  0  0  0  0  0  0  0  0
   18.1579   -2.7442   -6.1765 C   0  0  0  0  0  3  0  0  0  0  0  0
   19.0805   -3.7260   -6.8424 C   0  0  2  0  0  0  0  0  0  0  0  0
   20.4190   -3.0647   -7.0298 C   0  0  0  0  0  0  0  0  0  0  0  0
   20.0813   -1.7097   -7.3088 O   0  0  0  0  0  0  0  0  0  0  0  0
   20.7296   -1.3471   -8.4410 N   0  0  0  0  0  0  0  0  0  0  0  0
   18.6222   -4.2723   -8.0166 O   0  0  0  0  0  0  0  0  0  0  0  0
   19.6710   -4.7446   -8.6507 O   0  0  0  0  0  0  0  0  0  0  0  0
   20.1699   -5.8915   -8.0290 C   0  0  1  0  0  0  0  0  0  0  0  0
   21.3789   -6.1658   -8.6662 O   0  0  0  0  0  0  0  0  0  0  0  0
   20.4445   -5.7060   -6.5663 C   0  0  2  0  0  0  0  0  0  0  0  0
   20.5874   -6.9830   -5.9974 O   0  0  0  0  0  0  0  0  0  0  0  0
   19.2610   -4.9681   -5.9094 C   0  0  1  0  0  0  0  0  0  0  0  0
   19.6458   -4.4420   -4.6614 O   0  0  0  0  0  0  0  0  0  0  0  0
   19.3306   -5.3961   -3.7733 O   0  0  0  0  0  0  0  0  0  0  0  0
   17.9935   -5.5680   -3.8203 N   0  0  0  0  0  0  0  0  0  0  0  0
   17.6738   -6.5884   -4.7000 O   0  0  0  0  0  0  0  0  0  0  0  0
   16.4371   -7.1350   -4.4240 C   0  0  0  0  0  3  0  0  0  0  0  0
   16.2225   -8.3326   -5.1126 O   0  0  0  0  0  0  0  0  0  0  0  0
   17.6850   -8.7442   -5.9170 S   0  0  0  0  0  0  0  0  0  0  0  0
   17.5836   -8.3726   -7.5952 O   0  0  0  0  0  0  0  0  0  0  0  0
   18.7616   -8.4716   -8.1582 O   0  0  0  0  0  0  0  0  0  0  0  0
  2  1  1  1
  2  3  1  0
  3  4  1  0
  4  5  1  6
  4  6  1  0
  6  7  1  6
  6  8  1  0
  8  9  1  1
  8 10  1  0
 10 11  1  1
 11 12  1  0
 13 12  1  1
 13 14  1  0
 14 15  1  0
 15 16  1  0
 13 17  1  0
 17 18  1  0
 18 19  1  0
 19 20  1  6
 19 21  1  0
 21 22  1  1
 21 23  1  0
 23 24  1  1
 24 25  1  0
 25 26  1  0
 26 27  1  0
 27 28  1  0
 28 29  1  0
 29 30  1  0
 30 31  1  0
 31 32  1  0
 10  2  1  0
 23 13  1  0
M  RAD  2  12   2  28   2
M  END
>  <docking_score>  (2) 
-2.1589999999999998

$$$$

     RDKit          3D

 32 33  0  0  0  0  0  0  0  0999 V2000
    7.3030   11.6115    3.5894 C   0  0  0  0  0  0  0  0  0  0  0  0
    7.8931   12.9332    4.1067 C   0  0  1  0  0  0  0  0  0  0  0  0
    8.7446   13.5691    3.0271 C   0  0  0  0  0  0  0  0  0  0  0  0
    7.9416   13.8662    1.7774 C   0  0  2  0  0  0  0  0  0  0  0  0
    8.7789   14.4660    0.8411 O   0  0  0  0  0  0  0  0  0  0  0  0
    6.8702   14.8676    2.1963 C   0  0  2  0  0  0  0  0  0  0  0  0
    7.4583   16.0376    2.6478 O   0  0  0  0  0  0  0  0  0  0  0  0
    5.9575   14.2440    3.2059 C   0  0  1  0  0  0  0  0  0  0  0  0
    5.4449   13.0627    2.6251 O   0  0  0  0  0  0  0  0  0  0  0  0
    6.6877   13.7799    4.4487 C   0  0  1  0  0  0  0  0  0  0  0  0
    5.7403   12.9356    5.1478 N   0  0  0  0  0  0  0  0  0  0  0  0
    6.2568   12.3211    6.3444 C   0  0  0  0  0  3  0  0  0  0  0  0
    5.1168   12.2415    7.3204 C   0  0  2  0  0  0  0  0  0  0  0  0
    3.9988   13.1116    6.8136 C   0  0  0  0  0  0  0  0  0  0  0  0
    4.0904   14.2750    7.6297 O   0  0  0  0  0  0  0  0  0  0  0  0
    4.4035   15.3194    6.8266 N   0  0  0  0  0  0  0  0  0  0  0  0
    5.4284   12.5348    8.6258 O   0  0  0  0  0  0  0  0  0  0  0  0
    4.2991   12.8264    9.2296 O   0  0  0  0  0  0  0  0  0  0  0  0
    3.5124   11.6879    9.4189 C   0  0  1  0  0  0  0  0  0  0  0  0
    2.2801   12.1565    9.8714 O   0  0  0  0  0  0  0  0  0  0  0  0
    3.2812   10.9062    8.1601 C   0  0  2  0  0  0  0  0  0  0  0  0
    2.8049    9.6373    8.5316 O   0  0  0  0  0  0  0  0  0  0  0  0
    4.6096   10.7637    7.3908 C   0  0  1  0  0  0  0  0  0  0  0  0
    4.3630   10.3919    6.0554 O   0  0  0  0  0  0  0  0  0  0  0  0
    3.1057   10.7906    5.8134 O   0  0  0  0  0  0  0  0  0  0  0  0
    2.4081    9.7089    5.4094 N   0  0  0  0  0  0  0  0  0  0  0  0
    2.4222    9.6202    4.0277 O   0  0  0  0  0  0  0  0  0  0  0  0
    3.4503    8.8182    3.5757 C   0  0  0  0  0  3  0  0  0  0  0  0
    2.9893    7.7667    2.7781 O   0  0  0  0  0  0  0  0  0  0  0  0
    2.4679    6.5054    3.8235 S   0  0  0  0  0  0  0  0  0  0  0  0
    3.6159    6.2400    5.0791 O   0  0  0  0  0  0  0  0  0  0  0  0
    3.1227    5.4374    5.9885 O   0  0  0  0  0  0  0  0  0  0  0  0
  2  1  1  6
  2  3  1  0
  3  4  1  0
  4  5  1  6
  4  6  1  0
  6  7  1  1
  6  8  1  0
  8  9  1  6
  8 10  1  0
 10 11  1  1
 11 12  1  0
 13 12  1  6
 13 14  1  0
 14 15  1  0
 15 16  1  0
 13 17  1  0
 17 18  1  0
 18 19  1  0
 19 20  1  6
 19 21  1  0
 21 22  1  1
 21 23  1  0
 23 24  1  6
 24 25  1  0
 25 26  1  0
 26 27  1  0
 27 28  1  0
 28 29  1  0
 29 30  1  0
 30 31  1  0
 31 32  1  0
 10  2  1  0
 23 13  1  0
M  RAD  2  12   2  28   2
M  END
>  <docking_score>  (3) 
-1.452

$$$$
