
     RDKit          3D

 31 31  0  0  0  0  0  0  0  0999 V2000
   15.0515   -2.5587   -5.6323 C   0  0  0  0  0  0  0  0  0  0  0  0
   14.9278   -1.0551   -5.3386 C   0  0  0  0  0  0  0  0  0  0  0  0
   14.4760   -0.9590   -3.8977 C   0  0  0  0  0  0  0  0  0  0  0  0
   13.9150   -0.5777   -6.1517 O   0  0  0  0  0  0  0  0  0  0  0  0
   16.2692   -0.4658   -5.6066 C   0  0  0  0  0  0  0  0  0  0  0  0
   17.4416   -1.3386   -5.3449 C   0  0  0  0  0  0  0  0  0  0  0  0
   18.6995   -0.6669   -5.0333 C   0  0  0  0  0  0  0  0  0  0  0  0
   18.8748    0.4815   -5.3956 O   0  0  0  0  0  0  0  0  0  0  0  0
   19.8205   -1.3324   -4.2691 C   0  0  1  0  0  0  0  0  0  0  0  0
   20.1147   -2.7054   -4.7811 C   0  0  0  0  0  0  0  0  0  0  0  0
   20.9971   -0.5697   -4.4069 O   0  0  0  0  0  0  0  0  0  0  0  0
   19.3771   -1.3213   -2.8137 C   0  0  0  0  0  3  0  0  0  0  0  0
   18.1220   -2.1401   -2.6141 C   0  0  2  0  0  0  0  0  0  0  0  0
   17.1752   -1.3506   -1.9333 O   0  0  0  0  0  0  0  0  0  0  0  0
   18.4947   -3.3180   -1.7375 C   0  0  0  0  0  0  0  0  0  0  0  0
   18.5265   -4.5303   -2.6311 C   0  0  0  0  0  3  0  0  0  0  0  0
   19.6886   -5.4363   -2.3991 C   0  0  0  0  0  0  0  0  0  0  0  0
   17.2069   -5.2310   -2.5643 C   0  0  0  0  0  0  0  0  0  0  0  0
   16.5745   -5.1553   -3.9505 C   0  0  0  0  0  0  0  0  0  0  0  0
   15.4557   -6.1018   -4.0763 C   0  0  0  0  0  0  0  0  0  0  0  0
   15.4858   -7.0940   -4.9500 C   0  0  0  0  0  0  0  0  0  0  0  0
   16.6609   -7.2560   -5.8145 C   0  0  1  0  0  0  0  0  0  0  0  0
   17.1842   -5.8894   -6.1931 C   0  0  0  0  0  0  0  0  0  0  0  0
   17.7478   -8.0928   -5.1785 C   0  0  0  0  0  0  0  0  0  0  0  0
   18.4693   -8.9683   -6.1443 C   0  0  0  0  0  0  0  0  0  0  0  0
   18.0174   -8.8548   -7.5624 C   0  0  0  0  0  0  0  0  0  0  0  0
   17.9887   -7.5638   -8.0409 O   0  0  0  0  0  0  0  0  0  0  0  0
   19.0585   -6.7809   -7.6078 C   0  0  1  0  0  0  0  0  0  0  0  0
   19.6655   -6.0069   -8.7396 C   0  0  0  0  0  0  0  0  0  0  0  0
   18.6779   -5.9109   -6.4347 C   0  0  2  0  0  0  0  0  0  0  0  0
   19.3423   -6.3005   -5.2868 F   0  0  0  0  0  0  0  0  0  0  0  0
  1  2  1  0
  2  3  1  0
  2  4  1  0
  2  5  1  0
  5  6  1  0
  6  7  1  0
  7  8  2  0
  7  9  1  0
  9 10  1  6
  9 11  1  0
  9 12  1  0
 12 13  1  0
 13 14  1  1
 13 15  1  0
 15 16  1  0
 16 17  1  0
 16 18  1  0
 18 19  1  0
 19 20  1  0
 20 21  2  3
 22 21  1  0
 22 23  1  1
 22 24  1  0
 24 25  1  0
 25 26  1  0
 26 27  1  0
 27 28  1  0
 28 29  1  6
 28 30  1  0
 30 31  1  1
 30 23  1  0
M  RAD  2  12   2  16   2
M  END
>  <docking_score>  (1) 
-4.0170000000000003

$$$$

     RDKit          3D

 31 31  0  0  0  0  0  0  0  0999 V2000
   14.8626   -6.5154   -6.4208 C   0  0  0  0  0  0  0  0  0  0  0  0
   14.4963   -5.0538   -6.7235 C   0  0  0  0  0  0  0  0  0  0  0  0
   13.7161   -4.5732   -5.5194 C   0  0  0  0  0  0  0  0  0  0  0  0
   13.6490   -5.0792   -7.8172 O   0  0  0  0  0  0  0  0  0  0  0  0
   15.7833   -4.3396   -6.9516 C   0  0  0  0  0  0  0  0  0  0  0  0
   15.7047   -3.0449   -7.6741 C   0  0  0  0  0  0  0  0  0  0  0  0
   15.1602   -1.9134   -6.9299 C   0  0  0  0  0  0  0  0  0  0  0  0
   14.0176   -1.5498   -7.1377 O   0  0  0  0  0  0  0  0  0  0  0  0
   15.9533   -1.1518   -5.8934 C   0  0  1  0  0  0  0  0  0  0  0  0
   15.2645    0.1042   -5.4669 C   0  0  0  0  0  0  0  0  0  0  0  0
   16.1154   -1.9542   -4.7467 O   0  0  0  0  0  0  0  0  0  0  0  0
   17.3113   -0.8997   -6.5313 C   0  0  0  0  0  3  0  0  0  0  0  0
   18.3893   -0.7332   -5.4844 C   0  0  2  0  0  0  0  0  0  0  0  0
   18.7785    0.6198   -5.4530 O   0  0  0  0  0  0  0  0  0  0  0  0
   19.5717   -1.5701   -5.9274 C   0  0  0  0  0  0  0  0  0  0  0  0
   20.6718   -1.3297   -4.9268 C   0  0  0  0  0  3  0  0  0  0  0  0
   21.3824   -0.0288   -5.0932 C   0  0  0  0  0  0  0  0  0  0  0  0
   20.1410   -1.5419   -3.5448 C   0  0  0  0  0  0  0  0  0  0  0  0
   21.1453   -2.4106   -2.7939 C   0  0  0  0  0  0  0  0  0  0  0  0
   20.5716   -2.9230   -1.5403 C   0  0  0  0  0  0  0  0  0  0  0  0
   19.8221   -4.0122   -1.5185 C   0  0  0  0  0  0  0  0  0  0  0  0
   19.5555   -4.7273   -2.7725 C   0  0  1  0  0  0  0  0  0  0  0  0
   20.6780   -5.7070   -3.0273 C   0  0  0  0  0  0  0  0  0  0  0  0
   18.2160   -5.4285   -2.7760 C   0  0  0  0  0  0  0  0  0  0  0  0
   17.5330   -5.4041   -4.0999 C   0  0  0  0  0  0  0  0  0  0  0  0
   18.2885   -4.7198   -5.1903 C   0  0  0  0  0  0  0  0  0  0  0  0
   19.5811   -5.1690   -5.3452 O   0  0  0  0  0  0  0  0  0  0  0  0
   19.7181   -6.5482   -5.1907 C   0  0  1  0  0  0  0  0  0  0  0  0
   20.5599   -7.1415   -6.2806 C   0  0  0  0  0  0  0  0  0  0  0  0
   20.2004   -6.9124   -3.8076 C   0  0  2  0  0  0  0  0  0  0  0  0
   19.2228   -7.5847   -3.0980 F   0  0  0  0  0  0  0  0  0  0  0  0
  1  2  1  0
  2  3  1  0
  2  4  1  0
  2  5  1  0
  5  6  1  0
  6  7  1  0
  7  8  2  0
  7  9  1  0
  9 10  1  1
  9 11  1  0
  9 12  1  0
 12 13  1  0
 13 14  1  6
 13 15  1  0
 15 16  1  0
 16 17  1  0
 16 18  1  0
 18 19  1  0
 19 20  1  0
 20 21  2  3
 22 21  1  0
 22 23  1  1
 22 24  1  0
 24 25  1  0
 25 26  1  0
 26 27  1  0
 27 28  1  0
 28 29  1  6
 28 30  1  0
 30 31  1  1
 30 23  1  0
M  RAD  2  12   2  16   2
M  END
>  <docking_score>  (2) 
-3.2149999999999999

$$$$

     RDKit          3D

 31 31  0  0  0  0  0  0  0  0999 V2000
   14.2987   -2.1319   -4.9558 C   0  0  0  0  0  0  0  0  0  0  0  0
   14.3152   -0.6342   -5.3008 C   0  0  0  0  0  0  0  0  0  0  0  0
   13.4687    0.0358   -4.2405 C   0  0  0  0  0  0  0  0  0  0  0  0
   13.6773   -0.5050   -6.5219 O   0  0  0  0  0  0  0  0  0  0  0  0
   15.7464   -0.2218   -5.3010 C   0  0  0  0  0  0  0  0  0  0  0  0
   16.6240   -0.8718   -6.3070 C   0  0  0  0  0  0  0  0  0  0  0  0
   18.0621   -0.7858   -6.0724 C   0  0  0  0  0  0  0  0  0  0  0  0
   18.5034    0.0906   -5.3527 O   0  0  0  0  0  0  0  0  0  0  0  0
   19.0550   -1.7451   -6.6867 C   0  0  1  0  0  0  0  0  0  0  0  0
   18.4570   -2.5367   -7.8045 C   0  0  0  0  0  0  0  0  0  0  0  0
   20.1396   -1.0190   -7.2171 O   0  0  0  0  0  0  0  0  0  0  0  0
   19.5410   -2.6129   -5.5353 C   0  0  0  0  0  3  0  0  0  0  0  0
   18.4430   -3.5197   -5.0275 C   0  0  2  0  0  0  0  0  0  0  0  0
   17.4271   -3.5820   -6.0007 O   0  0  0  0  0  0  0  0  0  0  0  0
   17.8801   -2.8780   -3.7761 C   0  0  0  0  0  0  0  0  0  0  0  0
   17.4098   -4.0001   -2.8877 C   0  0  0  0  0  3  0  0  0  0  0  0
   16.8775   -3.5579   -1.5663 C   0  0  0  0  0  0  0  0  0  0  0  0
   16.4598   -4.8700   -3.6477 C   0  0  0  0  0  0  0  0  0  0  0  0
   17.0964   -6.2509   -3.7694 C   0  0  0  0  0  0  0  0  0  0  0  0
   18.2537   -6.3834   -2.8712 C   0  0  0  0  0  0  0  0  0  0  0  0
   19.4080   -6.8660   -3.2991 C   0  0  0  0  0  0  0  0  0  0  0  0
   19.5395   -7.2795   -4.7015 C   0  0  1  0  0  0  0  0  0  0  0  0
   18.3798   -8.1808   -5.0585 C   0  0  0  0  0  0  0  0  0  0  0  0
   19.6258   -6.1084   -5.6540 C   0  0  0  0  0  0  0  0  0  0  0  0
   20.5486   -6.3386   -6.8008 C   0  0  0  0  0  0  0  0  0  0  0  0
   21.2055   -7.6788   -6.8266 C   0  0  0  0  0  0  0  0  0  0  0  0
   20.3292   -8.7357   -6.7189 O   0  0  0  0  0  0  0  0  0  0  0  0
   19.1397   -8.5525   -7.4235 C   0  0  1  0  0  0  0  0  0  0  0  0
   18.7768   -9.7735   -8.2145 C   0  0  0  0  0  0  0  0  0  0  0  0
   18.0235   -8.0774   -6.5255 C   0  0  2  0  0  0  0  0  0  0  0  0
   17.6478   -6.7839   -6.8362 F   0  0  0  0  0  0  0  0  0  0  0  0
  1  2  1  0
  2  3  1  0
  2  4  1  0
  2  5  1  0
  5  6  1  0
  6  7  1  0
  7  8  2  0
  7  9  1  0
  9 10  1  6
  9 11  1  0
  9 12  1  0
 12 13  1  0
 13 14  1  6
 13 15  1  0
 15 16  1  0
 16 17  1  0
 16 18  1  0
 18 19  1  0
 19 20  1  0
 20 21  2  3
 22 21  1  0
 22 23  1  6
 22 24  1  0
 24 25  1  0
 25 26  1  0
 26 27  1  0
 27 28  1  0
 28 29  1  1
 28 30  1  0
 30 31  1  6
 30 23  1  0
M  RAD  2  12   2  16   2
M  END
>  <docking_score>  (3) 
-1.206

$$$$
