
     RDKit          3D

 13 12  0  0  0  0  0  0  0  0999 V2000
   14.6408   -6.3469   -5.3028 C   0  0  0  0  0  0  0  0  0  0  0  0
   14.4533   -4.9723   -5.3022 O   0  0  0  0  0  0  0  0  0  0  0  0
   15.2043   -4.3563   -6.2895 C   0  0  0  0  0  3  0  0  0  0  0  0
   15.1458   -2.9785   -6.2205 O   0  0  0  0  0  0  0  0  0  0  0  0
   15.0983   -2.5005   -4.9061 C   0  0  2  0  0  0  0  0  0  0  0  0
   14.1116   -1.3412   -4.8894 C   0  0  0  0  0  0  0  0  0  0  0  0
   14.6922   -0.1221   -5.5937 C   0  0  0  0  0  2  0  0  0  0  0  0
   16.4865   -1.9639   -4.6159 C   0  0  0  0  0  3  0  0  0  0  0  0
   16.8799   -2.1739   -3.3026 O   0  0  0  0  0  0  0  0  0  0  0  0
   16.1470   -3.2848   -2.8521 C   0  0  0  0  0  3  0  0  0  0  0  0
   17.0451   -4.2513   -2.1319 C   0  0  0  0  0  3  0  0  0  0  0  0
   17.5192   -5.3866   -2.9895 C   0  0  0  0  0  0  0  0  0  0  0  0
   18.7728   -5.1323   -3.5141 O   0  0  0  0  0  0  0  0  0  0  0  0
  1  2  1  0
  2  3  1  0
  3  4  1  0
  4  5  1  0
  5  6  1  6
  6  7  1  0
  5  8  1  0
  8  9  1  0
  9 10  1  0
 10 11  1  0
 11 12  1  0
 12 13  1  0
M  RAD  5   3   2   7   3   8   2  10   2  11   2
M  END
>  <docking_score>  (1) 
-2.9359999999999999

$$$$

     RDKit          3D

 13 12  0  0  0  0  0  0  0  0999 V2000
   13.1065   -5.3031   -8.6535 C   0  0  0  0  0  0  0  0  0  0  0  0
   13.6940   -5.8268   -7.5110 O   0  0  0  0  0  0  0  0  0  0  0  0
   13.8673   -4.8565   -6.5381 C   0  0  0  0  0  3  0  0  0  0  0  0
   15.0241   -4.1242   -6.7172 O   0  0  0  0  0  0  0  0  0  0  0  0
   15.0375   -2.9371   -5.9763 C   0  0  2  0  0  0  0  0  0  0  0  0
   15.3977   -1.8150   -6.9401 C   0  0  0  0  0  0  0  0  0  0  0  0
   16.2855   -2.3284   -8.0659 C   0  0  0  0  0  2  0  0  0  0  0  0
   16.1609   -3.0957   -4.9704 C   0  0  0  0  0  3  0  0  0  0  0  0
   15.7004   -3.3298   -3.6832 O   0  0  0  0  0  0  0  0  0  0  0  0
   16.1003   -2.2191   -2.9213 C   0  0  0  0  0  3  0  0  0  0  0  0
   17.3547   -2.5309   -2.1540 C   0  0  0  0  0  3  0  0  0  0  0  0
   18.4247   -1.4904   -2.3003 C   0  0  0  0  0  0  0  0  0  0  0  0
   19.1131   -1.6395   -3.4899 O   0  0  0  0  0  0  0  0  0  0  0  0
  1  2  1  0
  2  3  1  0
  3  4  1  0
  4  5  1  0
  5  6  1  6
  6  7  1  0
  5  8  1  0
  8  9  1  0
  9 10  1  0
 10 11  1  0
 11 12  1  0
 12 13  1  0
M  RAD  5   3   2   7   3   8   2  10   2  11   2
M  END
>  <docking_score>  (2) 
-2.8210000000000002

$$$$

     RDKit          3D

 13 12  0  0  0  0  0  0  0  0999 V2000
   17.3414   -1.9603   -2.3921 C   0  0  0  0  0  0  0  0  0  0  0  0
   15.9731   -1.9244   -2.6182 O   0  0  0  0  0  0  0  0  0  0  0  0
   15.6528   -2.4081   -3.8758 C   0  0  0  0  0  3  0  0  0  0  0  0
   16.4393   -3.4795   -4.2498 O   0  0  0  0  0  0  0  0  0  0  0  0
   15.7838   -4.3596   -5.1181 C   0  0  2  0  0  0  0  0  0  0  0  0
   14.4031   -3.7762   -5.3845 C   0  0  0  0  0  0  0  0  0  0  0  0
   13.4204   -4.8666   -5.7901 C   0  0  0  0  0  2  0  0  0  0  0  0
   15.6255   -5.6544   -4.3451 C   0  0  0  0  0  3  0  0  0  0  0  0
   16.6053   -6.5868   -4.6522 O   0  0  0  0  0  0  0  0  0  0  0  0
   16.6447   -6.6587   -6.0549 C   0  0  0  0  0  3  0  0  0  0  0  0
   17.4082   -7.8752   -6.4985 C   0  0  0  0  0  3  0  0  0  0  0  0
   17.7118   -8.8345   -5.3864 C   0  0  0  0  0  0  0  0  0  0  0  0
   16.8225   -9.8930   -5.3773 O   0  0  0  0  0  0  0  0  0  0  0  0
  1  2  1  0
  2  3  1  0
  3  4  1  0
  4  5  1  0
  5  6  1  1
  6  7  1  0
  5  8  1  0
  8  9  1  0
  9 10  1  0
 10 11  1  0
 11 12  1  0
 12 13  1  0
M  RAD  5   3   2   7   3   8   2  10   2  11   2
M  END
>  <docking_score>  (3) 
-2.778

$$$$
