
     RDKit          3D

 30 32  0  0  0  0  0  0  0  0999 V2000
    7.4674   14.6693    2.2054 N   0  0  0  0  0  2  0  0  0  0  0  0
    8.8414   14.7528    2.4563 C   0  0  0  0  0  0  0  0  0  0  0  0
    9.7165   15.0148    3.4181 C   0  0  0  0  0  0  0  0  0  0  0  0
    9.5418   15.3766    4.8167 C   0  0  0  0  0  0  0  0  0  0  0  0
    8.5363   15.1725    5.6695 C   0  0  0  0  0  0  0  0  0  0  0  0
    7.2386   14.5236    5.5565 C   0  0  0  0  0  0  0  0  0  0  0  0
    6.5266   14.3655    6.8328 C   0  0  0  0  0  0  0  0  0  0  0  0
    5.4846   13.6616    6.8799 O   0  0  0  0  0  0  0  0  0  0  0  0
    6.9563   14.9705    8.0237 N   0  0  0  0  0  0  0  0  0  0  0  0
    6.2805   14.8292    9.2687 C   0  0  0  0  0  0  0  0  0  0  0  0
    6.0274   15.8798   10.1241 C   0  0  0  0  0  0  0  0  0  0  0  0
    5.3591   15.6749   11.3324 C   0  0  0  0  0  0  0  0  0  0  0  0
    4.9294   14.4240   11.7144 C   0  0  0  0  0  0  0  0  0  0  0  0
    5.1858   13.3778   10.8542 C   0  0  0  0  0  0  0  0  0  0  0  0
    5.8459   13.5800    9.6608 C   0  0  0  0  0  0  0  0  0  0  0  0
    4.7428   12.0482   11.2341 C   0  0  0  0  0  0  0  0  0  0  0  0
    3.8450   11.3630   10.5855 C   0  0  0  0  0  0  0  0  0  0  0  0
    3.1934   11.8414    9.4256 N   0  0  0  0  0  0  0  0  0  0  0  0
    2.2951   12.9865    9.5950 C   0  0  0  0  0  0  0  0  0  0  0  0
    3.3697   11.2830    8.1774 N   0  0  0  0  0  4  0  0  0  0  0  0
    4.4253   10.6861    7.9021 O   0  0  0  0  0  0  0  0  0  0  0  0
    2.2830   11.4196    7.2080 C   0  0  0  0  0  0  0  0  0  0  0  0
    6.5553   14.0391    4.5345 C   0  0  0  0  0  0  0  0  0  0  0  0
    6.7459   13.9239    3.1328 N   0  0  0  0  0  0  0  0  0  0  0  0
    6.0507   12.8036    2.5335 C   0  0  0  0  0  0  0  0  0  0  0  0
    5.7405   11.7761    3.4812 N   0  0  0  0  0  3  0  0  0  0  0  0
    4.6417   11.0988    3.4175 C   0  0  0  0  0  0  0  0  0  0  0  0
    3.4047   10.8961    2.6995 O   0  0  0  0  0  0  0  0  0  0  0  0
    3.7418   10.1331    3.8400 N   0  0  0  0  0  0  0  0  0  0  0  0
    3.2682    9.0704    4.7025 C   0  0  0  0  0  0  0  0  0  0  0  0
  1  2  1  0
  2  3  2  3
  3  4  1  0
  4  5  2  3
  5  6  1  0
  6  7  1  0
  7  8  2  0
  7  9  1  0
  9 10  1  0
 10 11  2  0
 11 12  1  0
 12 13  2  0
 13 14  1  0
 14 15  2  0
 14 16  1  0
 16 17  2  3
 17 18  1  0
 18 19  1  0
 18 20  1  0
 20 21  2  0
 20 22  1  0
  6 23  2  3
 23 24  1  0
 24 25  1  0
 25 26  1  0
 26 27  2  3
 27 28  1  0
 28 29  1  0
 29 30  1  0
 24  1  1  0
 15 10  1  0
 29 27  1  0
M  CHG  3   1   1  20   1  26   1
M  RAD  2   1   3  26   2
M  END
>  <docking_score>  (1) 
-3.202

$$$$

     RDKit          3D

 30 32  0  0  0  0  0  0  0  0999 V2000
    5.7600   12.5147    4.1025 N   0  0  0  0  0  2  0  0  0  0  0  0
    5.3942   11.5976    3.1110 C   0  0  0  0  0  0  0  0  0  0  0  0
    5.1543   10.3080    2.9142 C   0  0  0  0  0  0  0  0  0  0  0  0
    5.1884    9.1661    3.8156 C   0  0  0  0  0  0  0  0  0  0  0  0
    5.0641    9.0747    5.1408 C   0  0  0  0  0  0  0  0  0  0  0  0
    4.8497   10.0497    6.1997 C   0  0  0  0  0  0  0  0  0  0  0  0
    4.5809    9.4617    7.5199 C   0  0  0  0  0  0  0  0  0  0  0  0
    4.2950    8.2395    7.6093 O   0  0  0  0  0  0  0  0  0  0  0  0
    4.6273   10.2066    8.7082 N   0  0  0  0  0  0  0  0  0  0  0  0
    4.3702    9.6553    9.9953 C   0  0  0  0  0  0  0  0  0  0  0  0
    4.9433    8.4892   10.4552 C   0  0  0  0  0  0  0  0  0  0  0  0
    4.6495    8.0006   11.7293 C   0  0  0  0  0  0  0  0  0  0  0  0
    3.7818    8.6596   12.5708 C   0  0  0  0  0  0  0  0  0  0  0  0
    3.2122    9.8251   12.1045 C   0  0  0  0  0  0  0  0  0  0  0  0
    3.5023   10.3079   10.8461 C   0  0  0  0  0  0  0  0  0  0  0  0
    2.2934   10.5392   12.9730 C   0  0  0  0  0  0  0  0  0  0  0  0
    2.6275   11.5588   13.7113 C   0  0  0  0  0  0  0  0  0  0  0  0
    3.9365   12.0913   13.7510 N   0  0  0  0  0  0  0  0  0  0  0  0
    4.9670   11.2694   14.3909 C   0  0  0  0  0  0  0  0  0  0  0  0
    4.2662   13.3217   13.2234 N   0  0  0  0  0  4  0  0  0  0  0  0
    5.3828   13.8205   13.4488 O   0  0  0  0  0  0  0  0  0  0  0  0
    3.2659   14.0034   12.4025 C   0  0  0  0  0  0  0  0  0  0  0  0
    4.8451   11.3709    6.2258 C   0  0  0  0  0  0  0  0  0  0  0  0
    5.0362   12.4180    5.2870 N   0  0  0  0  0  0  0  0  0  0  0  0
    4.3393   13.6430    5.6204 C   0  0  0  0  0  0  0  0  0  0  0  0
    5.1717   14.5801    6.3127 N   0  0  0  0  0  3  0  0  0  0  0  0
    6.4613   14.5030    6.2769 C   0  0  0  0  0  0  0  0  0  0  0  0
    7.5996   13.7745    5.7667 O   0  0  0  0  0  0  0  0  0  0  0  0
    7.7475   14.9112    6.5930 N   0  0  0  0  0  0  0  0  0  0  0  0
    8.7350   15.7617    7.2248 C   0  0  0  0  0  0  0  0  0  0  0  0
  1  2  1  0
  2  3  2  3
  3  4  1  0
  4  5  2  3
  5  6  1  0
  6  7  1  0
  7  8  2  0
  7  9  1  0
  9 10  1  0
 10 11  2  0
 11 12  1  0
 12 13  2  0
 13 14  1  0
 14 15  2  0
 14 16  1  0
 16 17  2  3
 17 18  1  0
 18 19  1  0
 18 20  1  0
 20 21  2  0
 20 22  1  0
  6 23  2  3
 23 24  1  0
 24 25  1  0
 25 26  1  0
 26 27  2  3
 27 28  1  0
 28 29  1  0
 29 30  1  0
 24  1  1  0
 15 10  1  0
 29 27  1  0
M  CHG  3   1   1  20   1  26   1
M  RAD  2   1   3  26   2
M  END
>  <docking_score>  (2) 
-2.1539999999999999

$$$$

     RDKit          3D

 30 32  0  0  0  0  0  0  0  0999 V2000
    2.3555    8.0524    6.2789 N   0  0  0  0  0  2  0  0  0  0  0  0
    3.0379    6.9447    5.7641 C   0  0  0  0  0  0  0  0  0  0  0  0
    3.8546    6.5799    4.7846 C   0  0  0  0  0  0  0  0  0  0  0  0
    4.4493    7.3286    3.6876 C   0  0  0  0  0  0  0  0  0  0  0  0
    4.7083    8.6284    3.5351 C   0  0  0  0  0  0  0  0  0  0  0  0
    4.5091    9.7985    4.3772 C   0  0  0  0  0  0  0  0  0  0  0  0
    5.1338   11.0270    3.8658 C   0  0  0  0  0  0  0  0  0  0  0  0
    4.9414   12.1173    4.4639 O   0  0  0  0  0  0  0  0  0  0  0  0
    5.9486   11.0476    2.7236 N   0  0  0  0  0  0  0  0  0  0  0  0
    6.5619   12.2267    2.2134 C   0  0  0  0  0  0  0  0  0  0  0  0
    7.3550   12.2488    1.0863 C   0  0  0  0  0  0  0  0  0  0  0  0
    7.9283   13.4396    0.6370 C   0  0  0  0  0  0  0  0  0  0  0  0
    7.7256   14.6304    1.2975 C   0  0  0  0  0  0  0  0  0  0  0  0
    6.9315   14.6010    2.4239 C   0  0  0  0  0  0  0  0  0  0  0  0
    6.3651   13.4251    2.8678 C   0  0  0  0  0  0  0  0  0  0  0  0
    6.7022   15.8440    3.1386 C   0  0  0  0  0  0  0  0  0  0  0  0
    7.1022   16.0721    4.3569 C   0  0  0  0  0  0  0  0  0  0  0  0
    7.8127   15.1250    5.1295 N   0  0  0  0  0  0  0  0  0  0  0  0
    9.2647   15.0710    4.9405 C   0  0  0  0  0  0  0  0  0  0  0  0
    7.2031   14.2757    6.0284 N   0  0  0  0  0  4  0  0  0  0  0  0
    6.3116   14.6998    6.7845 O   0  0  0  0  0  0  0  0  0  0  0  0
    7.6410   12.8804    6.0552 C   0  0  0  0  0  0  0  0  0  0  0  0
    3.8766    9.9930    5.5210 C   0  0  0  0  0  0  0  0  0  0  0  0
    3.1284    9.1997    6.4295 N   0  0  0  0  0  0  0  0  0  0  0  0
    3.1706    9.6723    7.7977 C   0  0  0  0  0  0  0  0  0  0  0  0
    3.8391   10.9321    7.9258 N   0  0  0  0  0  3  0  0  0  0  0  0
    3.3567   11.8898    8.6471 C   0  0  0  0  0  0  0  0  0  0  0  0
    2.2751   12.3059    9.5095 O   0  0  0  0  0  0  0  0  0  0  0  0
    3.3572   13.1605    9.2005 N   0  0  0  0  0  0  0  0  0  0  0  0
    3.8908   14.4851    9.4418 C   0  0  0  0  0  0  0  0  0  0  0  0
  1  2  1  0
  2  3  2  3
  3  4  1  0
  4  5  2  3
  5  6  1  0
  6  7  1  0
  7  8  2  0
  7  9  1  0
  9 10  1  0
 10 11  2  0
 11 12  1  0
 12 13  2  0
 13 14  1  0
 14 15  2  0
 14 16  1  0
 16 17  2  3
 17 18  1  0
 18 19  1  0
 18 20  1  0
 20 21  2  0
 20 22  1  0
  6 23  2  3
 23 24  1  0
 24 25  1  0
 25 26  1  0
 26 27  2  3
 27 28  1  0
 28 29  1  0
 29 30  1  0
 24  1  1  0
 15 10  1  0
 29 27  1  0
M  CHG  3   1   1  20   1  26   1
M  RAD  2   1   3  26   2
M  END
>  <docking_score>  (3) 
-0.63200000000000001

$$$$
