
     RDKit          3D

 50 53  0  0  0  0  0  0  0  0999 V2000
    4.3969   12.4314    6.0992 C   0  0  2  0  0  0  0  0  0  0  0  0
    3.9123   13.5752    5.4816 O   0  0  0  0  0  0  0  0  0  0  0  0
    4.5082   14.7323    5.9689 C   0  0  0  0  0  3  0  0  0  0  0  0
    3.5917   15.7958    5.9685 O   0  0  0  0  0  0  0  0  0  0  0  0
    2.9042   15.6420    7.1990 C   0  0  2  0  0  0  0  0  0  0  0  0
    3.9699   15.9652    8.2542 C   0  0  0  0  0  0  0  0  0  0  0  0
    2.5750   14.1425    7.2449 C   0  0  0  0  0  3  0  0  0  0  0  0
    3.4290   13.4011    8.2095 C   0  0  1  0  0  0  0  0  0  0  0  0
    2.6319   12.6167    9.1982 C   0  0  0  0  0  3  0  0  0  0  0  0
    2.6424   13.1250   10.5813 C   0  0  0  0  0  0  0  0  0  0  0  0
    3.9589   13.0150   11.2882 C   0  0  1  0  0  0  0  0  0  0  0  0
    4.7469   14.2833   11.2746 C   0  0  0  0  0  0  0  0  0  0  0  0
    3.8958   12.4020   12.5135 O   0  0  0  0  0  0  0  0  0  0  0  0
    5.2213   12.0727   12.8798 C   0  0  0  0  0  0  0  0  0  0  0  0
    5.6841   13.0161   13.9819 C   0  0  0  0  0  0  0  0  0  0  0  0
    6.8239   13.6979   13.6054 O   0  0  0  0  0  0  0  0  0  0  0  0
    6.9394   14.8463   14.2658 O   0  0  0  0  0  0  0  0  0  0  0  0
    7.1398   15.8022   13.3883 O   0  0  0  0  0  0  0  0  0  0  0  0
    6.3686   15.5052   12.2669 C   0  0  2  0  0  0  0  0  0  0  0  0
    6.9299   15.9728   11.0963 O   0  0  0  0  0  0  0  0  0  0  0  0
    5.1084   16.0733   12.4763 O   0  0  0  0  0  0  0  0  0  0  0  0
    4.2321   15.1039   12.2876 O   0  0  0  0  0  0  0  0  0  0  0  0
    4.5270   12.5888    7.5904 C   0  0  1  0  0  0  0  0  0  0  0  0
    4.4695   11.2073    8.2028 C   0  0  0  0  0  3  0  0  0  0  0  0
    5.6222   10.4025    7.9571 N   0  0  0  0  0  0  0  0  0  0  0  0
    3.1530   10.5470    7.9992 C   0  0  2  0  0  0  0  0  0  0  0  0
    2.8880    9.3867    8.8930 C   0  0  0  0  0  0  0  0  0  0  0  0
    2.3091    9.7898   10.0736 O   0  0  0  0  0  0  0  0  0  0  0  0
    2.8009    8.9949   11.0267 O   0  0  0  0  0  0  0  0  0  0  0  0
    2.7108   10.3938    6.5866 C   0  0  0  0  0  0  0  0  0  0  0  0
    2.6458    9.0303    6.3009 O   0  0  0  0  0  0  0  0  0  0  0  0
    3.9182    8.6750    5.8117 C   0  0  0  0  0  3  0  0  0  0  0  0
    4.3992    9.7624    5.1296 O   0  0  0  0  0  0  0  0  0  0  0  0
    5.4405    9.5242    4.2733 C   0  0  1  0  0  0  0  0  0  0  0  0
    7.0366    8.8841    5.1430 Br  0  0  0  0  0  0  0  0  0  0  0  0
    5.0223    8.4863    3.4052 O   0  0  0  0  0  0  0  0  0  0  0  0
    5.6714   10.7249    3.4357 C   0  0  1  0  0  0  0  0  0  0  0  0
    4.8054   10.7521    2.3709 O   0  0  0  0  0  0  0  0  0  0  0  0
    5.4360   11.1642    1.2702 O   0  0  0  0  0  0  0  0  0  0  0  0
    6.0344   12.3728    1.6004 C   0  0  2  0  0  0  0  0  0  0  0  0
    6.1234   13.2160    0.5186 O   0  0  0  0  0  0  0  0  0  0  0  0
    7.3911   12.1605    2.2824 C   0  0  0  0  0  0  0  0  0  0  0  0
    7.1637   12.6012    3.7375 C   0  0  1  0  0  0  0  0  0  0  0  0
    7.1511   14.4077    3.7097 S   0  0  0  0  0  0  0  0  0  0  0  0
    8.7663   15.0963    4.1535 C   0  0  0  0  0  3  0  0  0  0  0  0
    9.7477   13.9493    4.2209 C   0  0  0  0  0  0  0  0  0  0  0  0
    5.8005   12.0266    4.1580 C   0  0  2  0  0  0  0  0  0  0  0  0
    5.6453   11.9734    5.5693 N   0  0  0  0  0  0  0  0  0  0  0  0
    6.7686   12.6436    6.2165 C   0  0  0  0  0  2  0  0  0  0  0  0
    4.7992   12.8765    3.6364 O   0  0  0  0  0  0  0  0  0  0  0  0
  1  2  1  6
  2  3  1  0
  3  4  1  0
  4  5  1  0
  5  6  1  1
  5  7  1  0
  7  8  1  0
  8  9  1  6
  9 10  1  0
 11 10  1  1
 11 12  1  0
 11 13  1  0
 13 14  1  0
 14 15  1  0
 15 16  1  0
 16 17  1  0
 17 18  1  0
 18 19  1  0
 19 20  1  6
 19 21  1  0
 21 22  1  0
  8 23  1  0
 23 24  1  1
 24 25  1  0
 24 26  1  0
 26 27  1  6
 27 28  1  0
 28 29  1  0
 26 30  1  0
 30 31  1  0
 31 32  1  0
 32 33  1  0
 33 34  1  0
 34 35  1  0
 34 36  1  6
 34 37  1  0
 37 38  1  6
 38 39  1  0
 39 40  1  0
 40 41  1  6
 40 42  1  0
 42 43  1  0
 43 44  1  6
 44 45  1  0
 45 46  1  0
 43 47  1  0
 47 48  1  0
 48 49  1  0
 47 50  1  6
 23  1  1  0
 48  1  1  0
 22 12  1  0
 47 37  1  0
M  RAD  7   3   2   7   2   9   2  24   2  32   2  45   2  49   3
M  END
>  <docking_score>  (1) 
-0.75600000000000001

$$$$
