
     RDKit          3D

  7  7  0  0  0  0  0  0  0  0999 V2000
    6.0766    0.9333   -6.4783 C   0  0  0  0  0  0  0  0  0  0  0  0
    6.2104    0.3515   -7.8924 C   0  0  0  0  0  2  0  0  0  0  0  0
    6.0995   -1.1373   -7.7534 C   0  0  0  0  0  0  0  0  0  0  0  0
    6.2964   -1.6591   -6.3878 C   0  0  2  0  0  0  0  0  0  0  0  0
    5.0337   -1.9586   -5.8388 O   0  0  0  0  0  0  0  0  0  0  0  0
    6.9723   -0.8930   -5.5090 O   0  0  0  0  0  0  0  0  0  0  0  0
    7.0810    0.3539   -5.7316 O   0  0  0  0  0  0  0  0  0  0  0  0
  1  2  1  0
  2  3  1  0
  3  4  1  0
  4  5  1  1
  4  6  1  0
  6  7  1  0
  7  1  1  0
M  RAD  1   2   3
M  END
>  <docking_score>  (1) 
-3.8809999999999998

$$$$

     RDKit          3D

  7  7  0  0  0  0  0  0  0  0999 V2000
    5.6315   -1.2238   -6.8546 C   0  0  0  0  0  0  0  0  0  0  0  0
    6.7048   -1.2953   -5.7595 C   0  0  0  0  0  2  0  0  0  0  0  0
    7.1650    0.1115   -5.5207 C   0  0  0  0  0  0  0  0  0  0  0  0
    6.8208    1.0759   -6.5825 C   0  0  2  0  0  0  0  0  0  0  0  0
    5.7146    1.8356   -6.1529 O   0  0  0  0  0  0  0  0  0  0  0  0
    6.5551    0.5945   -7.8128 O   0  0  0  0  0  0  0  0  0  0  0  0
    6.2364   -0.6294   -7.9421 O   0  0  0  0  0  0  0  0  0  0  0  0
  1  2  1  0
  2  3  1  0
  3  4  1  0
  4  5  1  1
  4  6  1  0
  6  7  1  0
  7  1  1  0
M  RAD  1   2   3
M  END
>  <docking_score>  (2) 
-3.8460000000000001

$$$$

     RDKit          3D

  7  7  0  0  0  0  0  0  0  0999 V2000
    7.5068   -0.5615   -5.3819 C   0  0  0  0  0  0  0  0  0  0  0  0
    6.3969   -1.6157   -5.4956 C   0  0  0  0  0  2  0  0  0  0  0  0
    5.6316   -1.2964   -6.7447 C   0  0  0  0  0  0  0  0  0  0  0  0
    5.8387    0.0622   -7.2807 C   0  0  2  0  0  0  0  0  0  0  0  0
    6.7237   -0.0202   -8.3741 O   0  0  0  0  0  0  0  0  0  0  0  0
    6.2893    1.0128   -6.4385 O   0  0  0  0  0  0  0  0  0  0  0  0
    6.8698    0.6615   -5.3634 O   0  0  0  0  0  0  0  0  0  0  0  0
  1  2  1  0
  2  3  1  0
  3  4  1  0
  4  5  1  6
  4  6  1  0
  6  7  1  0
  7  1  1  0
M  RAD  1   2   3
M  END
>  <docking_score>  (3) 
-3.7440000000000002

$$$$
