
     RDKit          3D

 11 11  0  0  0  0  0  0  0  0999 V2000
   17.1651   -6.0048   -3.9104 O   0  0  0  0  0  0  0  0  0  0  0  0
   17.5055   -5.4187   -2.6836 C   0  0  0  0  0  0  0  0  0  0  0  0
   16.3991   -4.5379   -2.1673 C   0  0  0  0  0  3  0  0  0  0  0  0
   16.4560   -3.1927   -2.6863 N   0  0  0  0  0  0  0  0  0  0  0  0
   16.9142   -3.1263   -4.0509 C   0  0  0  0  0  3  0  0  0  0  0  0
   15.8304   -3.3791   -5.0581 C   0  0  2  0  0  0  0  0  0  0  0  0
   14.5976   -2.8998   -4.6630 O   0  0  0  0  0  0  0  0  0  0  0  0
   15.8291   -4.8284   -5.4415 C   0  0  1  0  0  0  0  0  0  0  0  0
   16.9673   -5.0963   -6.2174 O   0  0  0  0  0  0  0  0  0  0  0  0
   15.8539   -5.6548   -4.1849 C   0  0  1  0  0  0  0  0  0  0  0  0
   15.1073   -6.8017   -4.4005 O   0  0  0  0  0  0  0  0  0  0  0  0
  1  2  1  0
  2  3  1  0
  3  4  1  0
  4  5  1  0
  5  6  1  0
  6  7  1  1
  6  8  1  0
  8  9  1  6
  8 10  1  0
 10 11  1  6
 10  1  1  0
M  RAD  2   3   2   5   2
M  END
>  <docking_score>  (1) 
-3.5310000000000001

$$$$

     RDKit          3D

 11 11  0  0  0  0  0  0  0  0999 V2000
   18.5617   -2.4337   -1.8702 O   0  0  0  0  0  0  0  0  0  0  0  0
   19.1353   -3.6661   -1.5291 C   0  0  0  0  0  0  0  0  0  0  0  0
   18.9705   -4.6757   -2.6337 C   0  0  0  0  0  3  0  0  0  0  0  0
   17.7140   -5.3826   -2.5732 N   0  0  0  0  0  0  0  0  0  0  0  0
   16.6204   -4.5644   -2.1140 C   0  0  0  0  0  3  0  0  0  0  0  0
   16.0024   -3.7298   -3.1978 C   0  0  2  0  0  0  0  0  0  0  0  0
   15.9995   -4.3529   -4.4296 O   0  0  0  0  0  0  0  0  0  0  0  0
   16.6293   -2.3681   -3.2024 C   0  0  1  0  0  0  0  0  0  0  0  0
   16.2039   -1.6659   -2.0644 O   0  0  0  0  0  0  0  0  0  0  0  0
   18.1246   -2.5307   -3.1804 C   0  0  1  0  0  0  0  0  0  0  0  0
   18.6870   -1.5102   -3.9297 O   0  0  0  0  0  0  0  0  0  0  0  0
  1  2  1  0
  2  3  1  0
  3  4  1  0
  4  5  1  0
  5  6  1  0
  6  7  1  6
  6  8  1  0
  8  9  1  1
  8 10  1  0
 10 11  1  6
 10  1  1  0
M  RAD  2   3   2   5   2
M  END
>  <docking_score>  (2) 
-3.4830000000000001

$$$$

     RDKit          3D

 11 11  0  0  0  0  0  0  0  0999 V2000
   16.4387   -4.1435   -4.9267 O   0  0  0  0  0  0  0  0  0  0  0  0
   16.8227   -5.1512   -4.0315 C   0  0  0  0  0  0  0  0  0  0  0  0
   16.3007   -4.8852   -2.6447 C   0  0  0  0  0  3  0  0  0  0  0  0
   17.1671   -4.0334   -1.8663 N   0  0  0  0  0  0  0  0  0  0  0  0
   17.8174   -3.0129   -2.6487 C   0  0  0  0  0  3  0  0  0  0  0  0
   16.9647   -1.7982   -2.8735 C   0  0  2  0  0  0  0  0  0  0  0  0
   16.1423   -1.5051   -1.8043 O   0  0  0  0  0  0  0  0  0  0  0  0
   16.2447   -1.9251   -4.1823 C   0  0  1  0  0  0  0  0  0  0  0  0
   17.1702   -1.7854   -5.2279 O   0  0  0  0  0  0  0  0  0  0  0  0
   15.5983   -3.2820   -4.2422 C   0  0  1  0  0  0  0  0  0  0  0  0
   14.4003   -3.1663   -4.9282 O   0  0  0  0  0  0  0  0  0  0  0  0
  1  2  1  0
  2  3  1  0
  3  4  1  0
  4  5  1  0
  5  6  1  0
  6  7  1  1
  6  8  1  0
  8  9  1  6
  8 10  1  0
 10 11  1  6
 10  1  1  0
M  RAD  2   3   2   5   2
M  END
>  <docking_score>  (3) 
-3.4209999999999998

$$$$
