
     RDKit          3D

 26 26  0  0  0  0  0  0  0  0999 V2000
   19.2195   -0.7347   -4.9439 C   0  0  0  0  0  0  0  0  0  0  0  0
   18.3573   -1.8025   -5.5760 C   0  0  0  0  0  3  0  0  0  0  0  0
   17.7192   -2.7215   -4.6354 C   0  0  2  0  0  0  0  0  0  0  0  0
   16.6412   -3.5612   -5.2256 C   0  0  2  0  0  0  0  0  0  0  0  0
   16.4415   -3.3385   -6.6007 O   0  0  0  0  0  0  0  0  0  0  0  0
   15.3405   -3.1938   -4.5076 C   0  0  2  0  0  0  0  0  0  0  0  0
   14.2356   -3.5043   -5.3393 O   0  0  0  0  0  0  0  0  0  0  0  0
   15.4534   -1.6766   -4.3190 C   0  0  1  0  0  0  0  0  0  0  0  0
   14.1509   -1.2116   -4.2231 O   0  0  0  0  0  0  0  0  0  0  0  0
   16.2886   -1.3750   -3.2931 O   0  0  0  0  0  0  0  0  0  0  0  0
   17.4060   -2.2245   -3.2548 C   0  0  1  0  0  0  0  0  0  0  0  0
   17.0082   -3.4592   -2.4281 C   0  0  0  0  0  3  0  0  0  0  0  0
   18.2781   -3.9872   -1.8721 C   0  0  0  0  0  0  0  0  0  0  0  0
   18.7261   -5.2072   -2.4714 O   0  0  0  0  0  0  0  0  0  0  0  0
   20.1149   -4.8811   -2.5620 C   0  0  0  0  0  0  0  0  0  0  0  0
   20.3769   -4.5235   -3.8521 O   0  0  0  0  0  0  0  0  0  0  0  0
   21.1835   -5.4106   -4.5154 C   0  0  0  0  0  0  0  0  0  0  0  0
   20.3768   -6.3313   -5.1594 O   0  0  0  0  0  0  0  0  0  0  0  0
   19.3786   -5.8618   -5.8034 O   0  0  0  0  0  0  0  0  0  0  0  0
   18.7958   -6.9363   -6.5987 C   0  0  1  0  0  0  0  0  0  0  0  0
   19.9921   -7.6345   -7.1062 O   0  0  0  0  0  0  0  0  0  0  0  0
   18.4187   -7.9686   -5.4125 C   0  0  1  0  0  0  0  0  0  0  0  0
   17.4008   -7.1819   -4.7456 O   0  0  0  0  0  0  0  0  0  0  0  0
   17.7223   -9.1211   -6.0802 C   0  0  0  0  0  3  0  0  0  0  0  0
   17.1376   -9.9267   -5.0816 O   0  0  0  0  0  0  0  0  0  0  0  0
   15.8622  -10.0732   -5.3119 O   0  0  0  0  0  0  0  0  0  0  0  0
  1  2  1  0
  3  2  1  6
  3  4  1  0
  4  5  1  6
  4  6  1  0
  6  7  1  6
  6  8  1  0
  8  9  1  1
  8 10  1  0
 10 11  1  0
 11 12  1  1
 12 13  1  0
 13 14  1  0
 14 15  1  0
 15 16  1  0
 16 17  1  0
 17 18  1  0
 18 19  1  0
 19 20  1  0
 20 21  1  6
 20 22  1  0
 22 23  1  1
 22 24  1  0
 24 25  1  0
 25 26  1  0
 11  3  1  0
M  RAD  3   2   2  12   2  24   2
M  END
>  <docking_score>  (1) 
-3.3180000000000001

$$$$

     RDKit          3D

 26 26  0  0  0  0  0  0  0  0999 V2000
   18.4691   -5.8512   -3.1341 C   0  0  0  0  0  0  0  0  0  0  0  0
   19.0948   -6.9540   -3.9562 C   0  0  0  0  0  3  0  0  0  0  0  0
   18.6090   -7.0543   -5.3312 C   0  0  2  0  0  0  0  0  0  0  0  0
   19.4064   -7.9580   -6.2047 C   0  0  2  0  0  0  0  0  0  0  0  0
   20.4805   -8.5803   -5.5419 O   0  0  0  0  0  0  0  0  0  0  0  0
   19.9952   -7.0971   -7.3247 C   0  0  2  0  0  0  0  0  0  0  0  0
   21.1581   -7.7215   -7.8414 O   0  0  0  0  0  0  0  0  0  0  0  0
   20.3653   -5.7905   -6.6134 C   0  0  1  0  0  0  0  0  0  0  0  0
   21.3778   -5.2233   -7.3718 O   0  0  0  0  0  0  0  0  0  0  0  0
   19.2647   -5.0283   -6.3927 O   0  0  0  0  0  0  0  0  0  0  0  0
   18.1535   -5.8012   -6.0192 C   0  0  1  0  0  0  0  0  0  0  0  0
   17.4550   -6.2464   -7.3154 C   0  0  0  0  0  3  0  0  0  0  0  0
   17.0599   -4.9918   -8.0013 C   0  0  0  0  0  0  0  0  0  0  0  0
   15.7029   -4.9658   -8.4550 O   0  0  0  0  0  0  0  0  0  0  0  0
   15.0845   -5.4108   -7.2455 C   0  0  0  0  0  0  0  0  0  0  0  0
   14.2848   -4.4040   -6.7900 O   0  0  0  0  0  0  0  0  0  0  0  0
   14.3220   -4.2453   -5.4294 C   0  0  0  0  0  0  0  0  0  0  0  0
   15.5844   -3.8010   -5.0797 O   0  0  0  0  0  0  0  0  0  0  0  0
   15.7447   -3.4395   -3.8652 O   0  0  0  0  0  0  0  0  0  0  0  0
   16.1827   -2.0486   -3.8517 C   0  0  1  0  0  0  0  0  0  0  0  0
   14.9695   -1.3426   -3.3978 O   0  0  0  0  0  0  0  0  0  0  0  0
   16.9873   -2.0384   -2.4491 C   0  0  1  0  0  0  0  0  0  0  0  0
   16.5264   -3.3048   -1.9168 O   0  0  0  0  0  0  0  0  0  0  0  0
   18.4367   -2.2092   -2.8086 C   0  0  0  0  0  3  0  0  0  0  0  0
   18.9771   -0.9385   -3.0942 O   0  0  0  0  0  0  0  0  0  0  0  0
   19.4320   -0.9079   -4.3162 O   0  0  0  0  0  0  0  0  0  0  0  0
  1  2  1  0
  3  2  1  1
  3  4  1  0
  4  5  1  1
  4  6  1  0
  6  7  1  1
  6  8  1  0
  8  9  1  6
  8 10  1  0
 10 11  1  0
 11 12  1  6
 12 13  1  0
 13 14  1  0
 14 15  1  0
 15 16  1  0
 16 17  1  0
 17 18  1  0
 18 19  1  0
 19 20  1  0
 20 21  1  1
 20 22  1  0
 22 23  1  1
 22 24  1  0
 24 25  1  0
 25 26  1  0
 11  3  1  0
M  RAD  3   2   2  12   2  24   2
M  END
>  <docking_score>  (2) 
-3.0150000000000001

$$$$

     RDKit          3D

 26 26  0  0  0  0  0  0  0  0999 V2000
   19.7030   -5.6415   -3.0632 C   0  0  0  0  0  0  0  0  0  0  0  0
   20.1489   -5.8076   -4.4974 C   0  0  0  0  0  3  0  0  0  0  0  0
   19.1568   -6.4037   -5.3901 C   0  0  2  0  0  0  0  0  0  0  0  0
   19.4332   -7.8169   -5.7667 C   0  0  2  0  0  0  0  0  0  0  0  0
   20.5960   -8.3420   -5.1730 O   0  0  0  0  0  0  0  0  0  0  0  0
   19.6387   -7.8468   -7.2830 C   0  0  2  0  0  0  0  0  0  0  0  0
   20.4220   -8.9749   -7.6334 O   0  0  0  0  0  0  0  0  0  0  0  0
   20.4136   -6.5542   -7.5635 C   0  0  1  0  0  0  0  0  0  0  0  0
   21.1110   -6.7816   -8.7399 O   0  0  0  0  0  0  0  0  0  0  0  0
   19.5884   -5.4774   -7.5388 O   0  0  0  0  0  0  0  0  0  0  0  0
   18.6257   -5.5733   -6.5212 C   0  0  1  0  0  0  0  0  0  0  0  0
   17.4281   -6.3445   -7.1017 C   0  0  0  0  0  3  0  0  0  0  0  0
   16.7127   -5.3716   -7.9632 C   0  0  0  0  0  0  0  0  0  0  0  0
   16.0564   -4.3184   -7.2501 O   0  0  0  0  0  0  0  0  0  0  0  0
   16.4173   -3.2414   -8.1179 C   0  0  0  0  0  0  0  0  0  0  0  0
   16.5071   -2.1087   -7.3631 O   0  0  0  0  0  0  0  0  0  0  0  0
   15.4014   -1.8756   -6.5879 C   0  0  0  0  0  0  0  0  0  0  0  0
   15.7781   -1.9608   -5.2597 O   0  0  0  0  0  0  0  0  0  0  0  0
   15.0288   -2.6621   -4.4992 O   0  0  0  0  0  0  0  0  0  0  0  0
   15.8333   -3.1576   -3.3883 C   0  0  1  0  0  0  0  0  0  0  0  0
   16.9071   -3.8930   -4.0831 O   0  0  0  0  0  0  0  0  0  0  0  0
   16.6658   -1.8145   -3.0450 C   0  0  1  0  0  0  0  0  0  0  0  0
   15.9673   -1.4199   -1.8383 O   0  0  0  0  0  0  0  0  0  0  0  0
   18.0356   -2.2769   -2.6339 C   0  0  0  0  0  3  0  0  0  0  0  0
   18.8655   -1.1450   -2.4992 O   0  0  0  0  0  0  0  0  0  0  0  0
   20.1157   -1.5100   -2.4299 O   0  0  0  0  0  0  0  0  0  0  0  0
  1  2  1  0
  3  2  1  6
  3  4  1  0
  4  5  1  1
  4  6  1  0
  6  7  1  1
  6  8  1  0
  8  9  1  6
  8 10  1  0
 10 11  1  0
 11 12  1  6
 12 13  1  0
 13 14  1  0
 14 15  1  0
 15 16  1  0
 16 17  1  0
 17 18  1  0
 18 19  1  0
 19 20  1  0
 20 21  1  6
 20 22  1  0
 22 23  1  1
 22 24  1  0
 24 25  1  0
 25 26  1  0
 11  3  1  0
M  RAD  3   2   2  12   2  24   2
M  END
>  <docking_score>  (3) 
-2.7469999999999999

$$$$
