
     RDKit          3D

 69 73  0  0  0  0  0  0  0  0999 V2000
   10.1866    6.1439    6.4395 C   0  0  0  0  0  0  0  0  0  0  0  0
   10.4104    7.4918    7.0583 C   0  0  0  0  0  0  0  0  0  0  0  0
   10.9953    7.5970    8.4355 C   0  0  0  0  0  0  0  0  0  0  0  0
   11.2192    8.9449    9.0544 C   0  0  0  0  0  0  0  0  0  0  0  0
   11.8041    9.0501   10.4317 O   0  0  0  0  0  0  0  0  0  0  0  0
   10.8581   10.1876    8.2960 C   0  0  0  0  0  0  0  0  0  0  0  0
   11.0820   11.5356    8.9148 O   0  0  0  0  0  0  0  0  0  0  0  0
   10.2732   10.0825    6.9187 C   0  0  0  0  0  0  0  0  0  0  0  0
    9.9122   11.3252    6.1603 O   0  0  0  0  0  0  0  0  0  0  0  0
   10.0494    8.7346    6.2999 C   0  0  0  0  0  0  0  0  0  0  0  0
    9.4645    8.6294    4.9226 N   0  0  0  0  0  0  0  0  0  0  0  0
    7.9887    8.8043    4.7191 C   0  0  0  0  0  0  0  0  0  0  0  0
    7.1219    7.7104    5.2690 C   0  0  0  0  0  0  0  0  0  0  0  0
    5.6270    7.5920    5.2283 C   0  0  0  0  0  3  0  0  0  0  0  0
    5.0536    6.3653    5.8735 O   0  0  0  0  0  0  0  0  0  0  0  0
    4.6300    8.5380    4.6276 C   0  0  0  0  0  0  0  0  0  0  0  0
    3.1913    8.1322    4.7516 O   0  0  0  0  0  0  0  0  0  0  0  0
    4.8813    9.8362    3.9194 C   0  0  0  0  0  0  0  0  0  0  0  0
    3.6608   10.5569    3.4288 O   0  0  0  0  0  0  0  0  0  0  0  0
    6.1919   10.5089    3.6368 C   0  0  0  0  0  0  0  0  0  0  0  0
    6.1086   11.8133    2.9011 O   0  0  0  0  0  0  0  0  0  0  0  0
    7.5748   10.0496    3.9928 C   0  0  0  0  0  0  0  0  0  0  0  0
    8.6915   10.9556    3.5659 O   0  0  0  0  0  0  0  0  0  0  0  0
    9.1108   11.0023    2.1264 O   0  0  0  0  0  0  0  0  0  0  0  0
    9.4400    9.7321    1.3995 O   0  0  0  0  0  0  0  0  0  0  0  0
   10.7189    9.6220    0.6237 C   0  0  0  0  0  0  0  0  0  0  0  0
   11.8644   10.5403    0.9314 O   0  0  0  0  0  0  0  0  0  0  0  0
   10.8525    8.5936   -0.4601 C   0  0  0  0  0  3  0  0  0  0  0  0
   11.7495    7.4077   -0.2623 O   0  0  0  0  0  0  0  0  0  0  0  0
   13.0222    7.5516    0.5182 C   0  0  0  0  0  0  0  0  0  0  0  0
   12.9728    7.7401    2.0054 C   0  0  0  0  0  0  0  0  0  0  0  0
   12.9234    7.9285    3.4928 N   0  0  0  0  0  0  0  0  0  0  0  0
   14.2456    7.8840    2.7860 C   0  0  0  0  0  0  0  0  0  0  0  0
   15.5679    7.8396    2.0792 O   0  0  0  0  0  0  0  0  0  0  0  0
   15.6174    7.6511    0.5918 C   0  0  0  0  0  0  0  0  0  0  0  0
   14.3445    7.5071   -0.1886 C   0  0  0  0  0  0  0  0  0  0  0  0
   14.3940    7.3187   -1.6759 O   0  0  0  0  0  0  0  0  0  0  0  0
   14.5307    5.9411   -2.2533 C   0  0  0  0  0  0  0  0  0  0  0  0
   14.0890    4.7478   -1.4590 O   0  0  0  0  0  0  0  0  0  0  0  0
   15.1092    5.7567   -3.6250 C   0  0  0  0  0  3  0  0  0  0  0  0
   16.2960    6.5679   -4.0536 C   0  0  0  0  0  0  0  0  0  0  0  0
   17.4399    6.7815   -3.1072 C   0  0  0  0  0  0  0  0  0  0  0  0
   18.0939    5.6060   -2.4437 C   0  0  0  0  0  0  0  0  0  0  0  0
   17.9298    8.1707   -2.8243 O   0  0  0  0  0  0  0  0  0  0  0  0
   19.1765    8.3762   -2.0159 C   0  0  0  0  0  3  0  0  0  0  0  0
   19.4816    9.7264   -1.4380 O   0  0  0  0  0  0  0  0  0  0  0  0
   18.9028   10.9594   -2.0663 C   0  0  0  0  0  0  0  0  0  0  0  0
   19.7078   12.2241   -2.1164 O   0  0  0  0  0  0  0  0  0  0  0  0
   21.1646   12.2004   -1.7596 O   0  0  0  0  0  0  0  0  0  0  0  0
   16.3387    7.1653   -5.4288 C   0  0  0  0  0  0  0  0  0  0  0  0
   17.5697    7.0169   -6.2731 O   0  0  0  0  0  0  0  0  0  0  0  0
   18.8552    6.5584   -5.6508 C   0  0  0  0  0  3  0  0  0  0  0  0
   19.0481    5.1110   -5.3079 C   0  0  0  0  0  3  0  0  0  0  0  0
   18.0438    4.0928   -5.7602 N   0  0  0  0  0  0  0  0  0  0  0  0
   18.5021    2.7413   -6.2224 C   0  0  0  0  0  3  0  0  0  0  0  0
   18.9927    1.7341   -5.2249 O   0  0  0  0  0  0  0  0  0  0  0  0
   19.2716    0.3250   -5.6570 C   0  0  0  0  0  0  0  0  0  0  0  0
   20.6667   -0.0840   -6.0261 C   0  0  0  0  0  0  0  0  0  0  0  0
   21.3547    0.5635   -7.1912 O   0  0  0  0  0  0  0  0  0  0  0  0
   21.3739   -1.1406   -5.2301 O   0  0  0  0  0  0  0  0  0  0  0  0
   20.5842   -2.1068   -4.3977 C   0  0  0  0  0  0  0  0  0  0  0  0
   19.1169   -1.8845   -4.1803 O   0  0  0  0  0  0  0  0  0  0  0  0
   18.1630   -1.9938   -5.3328 C   0  0  0  0  0  0  0  0  0  0  0  0
   16.6847   -1.9095   -5.0934 C   0  0  0  0  0  3  0  0  0  0  0  0
   18.6875   -2.1873   -6.7248 C   0  0  0  0  0  0  0  0  0  0  0  0
   17.7336   -2.2966   -7.8773 O   0  0  0  0  0  0  0  0  0  0  0  0
   16.2553   -2.2123   -7.6377 N   0  0  0  0  0  0  0  0  0  0  0  0
   15.7308   -2.0187   -6.2458 C   0  0  0  0  0  0  0  0  0  0  0  0
   14.2524   -1.9344   -6.0063 C   0  0  0  0  0  2  0  0  0  0  0  0
  2  1  1  0
  2  3  1  0
  3  4  1  0
  4  5  1  0
  4  6  1  0
  6  7  1  0
  6  8  1  0
  8  9  1  0
  8 10  1  0
 10 11  1  0
 12 11  1  0
 12 13  1  0
 13 14  1  0
 14 15  1  0
 14 16  1  0
 16 17  1  0
 16 18  1  0
 18 19  1  0
 18 20  1  0
 20 21  1  0
 20 22  1  0
 22 23  1  0
 23 24  1  0
 24 25  1  0
 25 26  1  0
 26 27  1  0
 26 28  1  0
 28 29  1  0
 30 29  1  0
 30 31  1  0
 31 32  1  0
 31 33  1  0
 33 34  1  0
 34 35  1  0
 35 36  1  0
 36 37  1  0
 37 38  1  0
 38 39  1  0
 38 40  1  0
 41 40  1  0
 41 42  1  0
 42 43  1  0
 42 44  1  0
 44 45  1  0
 45 46  1  0
 46 47  1  0
 47 48  1  0
 48 49  1  0
 41 50  1  0
 50 51  1  0
 51 52  1  0
 52 53  1  0
 53 54  1  0
 54 55  1  0
 55 56  1  0
 56 57  1  0
 57 58  1  0
 58 59  1  0
 58 60  1  0
 60 61  1  0
 61 62  1  0
 63 62  1  0
 63 64  1  0
 63 65  1  0
 65 66  1  0
 66 67  1  0
 67 68  1  0
 68 69  1  0
 10  2  1  0
 22 12  1  0
 36 30  1  0
 33 32  1  0
 68 64  1  0
M  RAD  8  14   2  28   2  40   2  45   2  52   2  53   2  55   2  64   2
M  RAD  1  69   3
M  END
>  <docking_score>  (1) 
67.768000000000001

$$$$
