
     RDKit          3D

 20 20  0  0  0  0  0  0  0  0999 V2000
   16.1459   -4.4591   -7.9439 C   0  0  0  0  0  0  0  0  0  0  0  0
   16.8003   -3.4509   -7.2433 O   0  0  0  0  0  0  0  0  0  0  0  0
   15.9991   -2.3121   -7.2025 C   0  0  0  0  0  0  0  0  0  0  0  0
   16.0004   -1.7230   -5.7928 C   0  0  1  0  0  0  0  0  0  0  0  0
   15.7364   -0.3701   -5.8135 O   0  0  0  0  0  0  0  0  0  0  0  0
   14.9718   -2.5068   -5.0011 C   0  0  2  0  0  0  0  0  0  0  0  0
   13.9109   -1.6136   -4.7529 O   0  0  0  0  0  0  0  0  0  0  0  0
   15.5837   -2.8762   -3.6979 C   0  0  0  0  0  3  0  0  0  0  0  0
   16.6461   -3.9277   -3.7798 C   0  0  1  0  0  0  0  0  0  0  0  0
   17.7653   -3.7749   -2.8186 C   0  0  2  0  0  0  0  0  0  0  0  0
   18.7197   -2.6813   -3.2165 C   0  0  0  0  0  0  0  0  0  0  0  0
   18.6956   -1.4470   -1.9386 Cl  0  0  0  0  0  0  0  0  0  0  0  0
   18.5154   -5.0286   -2.6791 C   0  0  0  0  0  0  0  0  0  0  0  0
   18.5667   -6.0017   -3.5394 C   0  0  0  0  0  0  0  0  0  0  0  0
   17.9417   -6.0729   -4.7489 O   0  0  0  0  0  0  0  0  0  0  0  0
   15.9755   -5.2729   -3.5564 C   0  0  0  0  0  3  0  0  0  0  0  0
   15.5186   -5.7030   -4.8092 O   0  0  0  0  0  0  0  0  0  0  0  0
   15.7821   -7.0823   -4.9509 C   0  0  0  0  0  3  0  0  0  0  0  0
   17.2620   -7.2695   -5.1240 C   0  0  1  0  0  0  0  0  0  0  0  0
   17.6914   -7.7739   -6.7712 Cl  0  0  0  0  0  0  0  0  0  0  0  0
  1  2  1  0
  2  3  1  0
  3  4  1  0
  4  5  1  6
  4  6  1  0
  6  7  1  1
  6  8  1  0
  9  8  1  1
  9 10  1  0
 10 11  1  6
 11 12  1  0
 10 13  1  0
 13 14  2  3
 14 15  1  0
  9 16  1  0
 16 17  1  0
 17 18  1  0
 18 19  1  0
 19 20  1  6
 19 15  1  0
M  RAD  3   8   2  16   2  18   2
M  END
>  <docking_score>  (1) 
-4.2320000000000002

$$$$

     RDKit          3D

 20 20  0  0  0  0  0  0  0  0999 V2000
   13.6386    0.2539   -4.4312 C   0  0  0  0  0  0  0  0  0  0  0  0
   14.5032    0.3173   -5.5193 O   0  0  0  0  0  0  0  0  0  0  0  0
   15.1612   -0.9016   -5.6671 C   0  0  0  0  0  0  0  0  0  0  0  0
   14.7789   -1.8429   -4.5261 C   0  0  1  0  0  0  0  0  0  0  0  0
   14.2466   -3.0213   -5.0040 O   0  0  0  0  0  0  0  0  0  0  0  0
   16.0386   -2.0594   -3.7103 C   0  0  2  0  0  0  0  0  0  0  0  0
   17.1142   -1.7865   -4.5783 O   0  0  0  0  0  0  0  0  0  0  0  0
   16.0972   -3.4961   -3.3340 C   0  0  0  0  0  3  0  0  0  0  0  0
   17.3646   -4.1937   -3.7186 C   0  0  1  0  0  0  0  0  0  0  0  0
   18.1341   -4.7775   -2.5930 C   0  0  2  0  0  0  0  0  0  0  0  0
   18.8689   -3.7333   -1.7962 C   0  0  0  0  0  0  0  0  0  0  0  0
   19.7813   -2.7213   -2.9366 Cl  0  0  0  0  0  0  0  0  0  0  0  0
   19.1009   -5.7711   -3.0745 C   0  0  0  0  0  0  0  0  0  0  0  0
   19.5988   -5.8518   -4.2725 C   0  0  0  0  0  0  0  0  0  0  0  0
   19.3362   -5.0403   -5.3360 O   0  0  0  0  0  0  0  0  0  0  0  0
   17.0000   -5.2956   -4.6994 C   0  0  0  0  0  3  0  0  0  0  0  0
   16.9914   -4.7091   -5.9719 O   0  0  0  0  0  0  0  0  0  0  0  0
   17.6031   -5.5874   -6.8919 C   0  0  0  0  0  3  0  0  0  0  0  0
   19.0791   -5.6138   -6.6164 C   0  0  1  0  0  0  0  0  0  0  0  0
   20.0191   -4.8110   -7.8908 Cl  0  0  0  0  0  0  0  0  0  0  0  0
  1  2  1  0
  2  3  1  0
  3  4  1  0
  4  5  1  6
  4  6  1  0
  6  7  1  6
  6  8  1  0
  9  8  1  1
  9 10  1  0
 10 11  1  6
 11 12  1  0
 10 13  1  0
 13 14  2  3
 14 15  1  0
  9 16  1  0
 16 17  1  0
 17 18  1  0
 18 19  1  0
 19 20  1  6
 19 15  1  0
M  RAD  3   8   2  16   2  18   2
M  END
>  <docking_score>  (2) 
-4.077

$$$$

     RDKit          3D

 20 20  0  0  0  0  0  0  0  0999 V2000
   13.9440   -5.1574   -6.9860 C   0  0  0  0  0  0  0  0  0  0  0  0
   13.6933   -4.6451   -5.7171 O   0  0  0  0  0  0  0  0  0  0  0  0
   14.8729   -4.1424   -5.1728 C   0  0  0  0  0  0  0  0  0  0  0  0
   15.0190   -2.6620   -5.5208 C   0  0  1  0  0  0  0  0  0  0  0  0
   13.9472   -1.9290   -5.0579 O   0  0  0  0  0  0  0  0  0  0  0  0
   16.3373   -2.2105   -4.9228 C   0  0  2  0  0  0  0  0  0  0  0  0
   16.7518   -1.1036   -5.6896 O   0  0  0  0  0  0  0  0  0  0  0  0
   17.3241   -3.3052   -5.1146 C   0  0  0  0  0  3  0  0  0  0  0  0
   18.2911   -3.4825   -3.9857 C   0  0  1  0  0  0  0  0  0  0  0  0
   18.4261   -4.8694   -3.4778 C   0  0  2  0  0  0  0  0  0  0  0  0
   17.2542   -5.2884   -2.6314 C   0  0  0  0  0  0  0  0  0  0  0  0
   16.7466   -3.8822   -1.6711 Cl  0  0  0  0  0  0  0  0  0  0  0  0
   19.6558   -5.0260   -2.6923 C   0  0  0  0  0  0  0  0  0  0  0  0
   20.3219   -4.0814   -2.0976 C   0  0  0  0  0  0  0  0  0  0  0  0
   20.0292   -2.7501   -2.0719 O   0  0  0  0  0  0  0  0  0  0  0  0
   19.6471   -2.9914   -4.4644 C   0  0  0  0  0  3  0  0  0  0  0  0
   19.6817   -1.6128   -4.2161 O   0  0  0  0  0  0  0  0  0  0  0  0
   20.9506   -1.2648   -3.7055 C   0  0  0  0  0  3  0  0  0  0  0  0
   21.0623   -1.7946   -2.3048 C   0  0  1  0  0  0  0  0  0  0  0  0
   21.0397   -0.5010   -1.0890 Cl  0  0  0  0  0  0  0  0  0  0  0  0
  1  2  1  0
  2  3  1  0
  3  4  1  0
  4  5  1  1
  4  6  1  0
  6  7  1  6
  6  8  1  0
  9  8  1  6
  9 10  1  0
 10 11  1  1
 11 12  1  0
 10 13  1  0
 13 14  2  3
 14 15  1  0
  9 16  1  0
 16 17  1  0
 17 18  1  0
 18 19  1  0
 19 20  1  1
 19 15  1  0
M  RAD  3   8   2  16   2  18   2
M  END
>  <docking_score>  (3) 
-4.0670000000000002

$$$$
