
     RDKit          3D

 16 17  0  0  0  0  0  0  0  0999 V2000
   20.3381   -2.8666   -1.1384 C   0  0  0  0  0  0  0  0  0  0  0  0
   20.8794   -1.5274   -0.7945 C   0  0  0  0  0  0  0  0  0  0  0  0
   20.1145   -0.5885   -1.3242 C   0  0  0  0  0  0  0  0  0  0  0  0
   19.0344   -1.2362   -2.0415 C   0  0  0  0  0  0  0  0  0  0  0  0
   19.1397   -2.5402   -1.9504 C   0  0  0  0  0  0  0  0  0  0  0  0
   18.2253   -3.5025   -2.5512 C   0  0  0  0  0  0  0  0  0  0  0  0
   17.0898   -3.9462   -1.8864 C   0  0  0  0  0  0  0  0  0  0  0  0
   16.2536   -4.8642   -2.5077 C   0  0  0  0  0  0  0  0  0  0  0  0
   16.5198   -5.3470   -3.7665 C   0  0  0  0  0  0  0  0  0  0  0  0
   15.4102   -6.5036   -4.5813 S   0  0  0  0  0  0  0  0  0  0  0  0
   14.4898   -4.3100   -5.4523 C   0  0  0  0  0  0  0  0  0  0  0  0
   16.3984   -6.1731   -6.4412 S   0  0  0  0  0  0  0  0  0  0  0  0
   14.4173   -6.8869   -4.6177 O   0  0  0  0  0  0  0  0  0  0  0  0
   17.6432   -4.9158   -4.4371 C   0  0  0  0  0  0  0  0  0  0  0  0
   18.4705   -4.0025   -3.8133 C   0  0  0  0  0  0  0  0  0  0  0  0
   19.6568   -3.5277   -4.4863 N   0  0  0  0  0  0  0  0  0  0  0  0
  1  2  1  0
  2  3  2  0
  3  4  1  0
  4  5  2  0
  5  6  1  0
  6  7  2  0
  7  8  1  0
  8  9  2  0
  9 10  1  0
 10 11  1  0
 10 12  1  0
 10 13  2  0
  9 14  1  0
 14 15  2  0
 15 16  1  0
  5  1  1  0
 15  6  1  0
M  END
>  <docking_score>  (1) 
-5.0209999999999999

$$$$

     RDKit          3D

 16 17  0  0  0  0  0  0  0  0999 V2000
   19.4793   -0.8915   -2.5497 C   0  0  0  0  0  0  0  0  0  0  0  0
   20.5503   -0.3710   -1.6627 C   0  0  0  0  0  0  0  0  0  0  0  0
   20.9389   -1.3205   -0.8293 C   0  0  0  0  0  0  0  0  0  0  0  0
   20.1620   -2.5121   -1.1072 C   0  0  0  0  0  0  0  0  0  0  0  0
   19.3194   -2.2926   -2.0878 C   0  0  0  0  0  0  0  0  0  0  0  0
   18.3836   -3.2700   -2.6282 C   0  0  0  0  0  0  0  0  0  0  0  0
   17.0476   -3.2903   -2.2503 C   0  0  0  0  0  0  0  0  0  0  0  0
   16.2007   -4.2447   -2.7980 C   0  0  0  0  0  0  0  0  0  0  0  0
   16.6501   -5.1724   -3.7069 C   0  0  0  0  0  0  0  0  0  0  0  0
   15.5383   -6.3783   -4.4433 S   0  0  0  0  0  0  0  0  0  0  0  0
   15.1995   -4.4304   -6.0271 C   0  0  0  0  0  0  0  0  0  0  0  0
   16.9132   -6.7008   -6.0405 S   0  0  0  0  0  0  0  0  0  0  0  0
   14.5207   -6.6411   -4.6150 O   0  0  0  0  0  0  0  0  0  0  0  0
   17.9732   -5.1640   -4.0900 C   0  0  0  0  0  0  0  0  0  0  0  0
   18.8100   -4.2119   -3.5415 C   0  0  0  0  0  0  0  0  0  0  0  0
   20.2030   -4.1727   -3.9203 N   0  0  0  0  0  0  0  0  0  0  0  0
  1  2  1  0
  2  3  2  0
  3  4  1  0
  4  5  2  0
  5  6  1  0
  6  7  2  0
  7  8  1  0
  8  9  2  0
  9 10  1  0
 10 11  1  0
 10 12  1  0
 10 13  2  0
  9 14  1  0
 14 15  2  0
 15 16  1  0
  5  1  1  0
 15  6  1  0
M  END
>  <docking_score>  (2) 
-4.5579999999999998

$$$$

     RDKit          3D

 16 17  0  0  0  0  0  0  0  0999 V2000
   14.8159   -1.1829   -6.0809 C   0  0  0  0  0  0  0  0  0  0  0  0
   14.0100   -0.0156   -5.6419 C   0  0  0  0  0  0  0  0  0  0  0  0
   13.9168   -0.0093   -4.3234 C   0  0  0  0  0  0  0  0  0  0  0  0
   14.6441   -1.1544   -3.8131 C   0  0  0  0  0  0  0  0  0  0  0  0
   15.1682   -1.8422   -4.7990 C   0  0  0  0  0  0  0  0  0  0  0  0
   15.9640   -3.0536   -4.6504 C   0  0  0  0  0  0  0  0  0  0  0  0
   15.3786   -4.3118   -4.5998 C   0  0  0  0  0  0  0  0  0  0  0  0
   16.1865   -5.4321   -4.4574 C   0  0  0  0  0  0  0  0  0  0  0  0
   17.5538   -5.3294   -4.3651 C   0  0  0  0  0  0  0  0  0  0  0  0
   18.5962   -6.7874   -4.2230 S   0  0  0  0  0  0  0  0  0  0  0  0
   18.0673   -6.8541   -6.6996 C   0  0  0  0  0  0  0  0  0  0  0  0
   20.2024   -5.7569   -5.1734 S   0  0  0  0  0  0  0  0  0  0  0  0
   18.6204   -7.8520   -4.2419 O   0  0  0  0  0  0  0  0  0  0  0  0
   18.1476   -4.0873   -4.4132 C   0  0  0  0  0  0  0  0  0  0  0  0
   17.3381   -2.9773   -4.5552 C   0  0  0  0  0  0  0  0  0  0  0  0
   17.9258   -1.6592   -4.6100 N   0  0  0  0  0  0  0  0  0  0  0  0
  1  2  1  0
  2  3  2  0
  3  4  1  0
  4  5  2  0
  5  6  1  0
  6  7  2  0
  7  8  1  0
  8  9  2  0
  9 10  1  0
 10 11  1  0
 10 12  1  0
 10 13  2  0
  9 14  1  0
 14 15  2  0
 15 16  1  0
  5  1  1  0
 15  6  1  0
M  END
>  <docking_score>  (3) 
-4.1829999999999998

$$$$
