
     RDKit          3D

 16 15  0  0  0  0  0  0  0  0999 V2000
   17.3590   -2.3535   -7.3728 C   0  0  0  0  0  0  0  0  0  0  0  0
   16.9242   -1.4176   -6.3096 C   0  0  0  0  0  0  0  0  0  0  0  0
   17.7781   -0.7229   -5.6768 O   0  0  0  0  0  0  0  0  0  0  0  0
   15.5657   -1.3110   -6.0147 O   0  0  0  0  0  0  0  0  0  0  0  0
   15.2239   -1.1375   -4.6515 C   0  0  0  0  0  3  0  0  0  0  0  0
   13.8306   -0.6519   -4.5837 C   0  0  0  0  0  0  0  0  0  0  0  0
   13.6591    0.5626   -4.4719 O   0  0  0  0  0  0  0  0  0  0  0  0
   15.4882   -2.3471   -3.8148 C   0  0  0  0  0  0  0  0  0  0  0  0
   16.1344   -2.0279   -2.4854 C   0  0  0  0  0  0  0  0  0  0  0  0
   17.1860   -3.1061   -2.2185 C   0  0  0  0  0  3  0  0  0  0  0  0
   16.5178   -4.4781   -2.3527 C   0  0  0  0  0  0  0  0  0  0  0  0
   17.5767   -5.4617   -2.7754 C   0  0  0  0  0  3  0  0  0  0  0  0
   17.1496   -6.1617   -4.0526 C   0  0  2  0  0  0  0  0  0  0  0  0
   17.8886   -5.5628   -5.2270 C   0  0  0  0  0  0  0  0  0  0  0  0
   15.6947   -5.9110   -4.2631 C   0  0  0  0  0  0  0  0  0  0  0  0
   15.2761   -5.5729   -5.3777 O   0  0  0  0  0  0  0  0  0  0  0  0
  1  2  1  0
  2  3  2  0
  2  4  1  0
  4  5  1  0
  5  6  1  0
  6  7  2  0
  5  8  1  0
  8  9  1  0
  9 10  1  0
 10 11  1  0
 11 12  1  0
 12 13  1  0
 13 14  1  6
 13 15  1  0
 15 16  2  0
M  RAD  3   5   2  10   2  12   2
M  END
>  <docking_score>  (1) 
-3.6099999999999999

$$$$

     RDKit          3D

 16 15  0  0  0  0  0  0  0  0999 V2000
   18.3117   -3.7321   -1.9711 C   0  0  0  0  0  0  0  0  0  0  0  0
   16.8511   -3.7295   -2.2196 C   0  0  0  0  0  0  0  0  0  0  0  0
   16.1606   -4.7728   -2.0024 O   0  0  0  0  0  0  0  0  0  0  0  0
   16.2466   -2.5663   -2.6946 O   0  0  0  0  0  0  0  0  0  0  0  0
   15.5948   -2.6564   -3.9485 C   0  0  0  0  0  3  0  0  0  0  0  0
   14.9117   -1.3724   -4.2062 C   0  0  0  0  0  0  0  0  0  0  0  0
   13.8304   -1.4143   -4.7946 O   0  0  0  0  0  0  0  0  0  0  0  0
   16.4957   -3.0993   -5.0553 C   0  0  0  0  0  0  0  0  0  0  0  0
   15.8130   -3.9979   -6.0618 C   0  0  0  0  0  0  0  0  0  0  0  0
   14.7475   -4.7979   -5.3107 C   0  0  0  0  0  3  0  0  0  0  0  0
   14.8856   -6.2731   -5.6998 C   0  0  0  0  0  0  0  0  0  0  0  0
   16.0281   -6.8492   -4.9057 C   0  0  0  0  0  3  0  0  0  0  0  0
   17.0476   -7.4682   -5.8443 C   0  0  2  0  0  0  0  0  0  0  0  0
   17.1664   -8.9468   -5.5553 C   0  0  0  0  0  0  0  0  0  0  0  0
   18.3766   -6.8496   -5.5702 C   0  0  0  0  0  0  0  0  0  0  0  0
   18.4917   -5.9854   -4.6918 O   0  0  0  0  0  0  0  0  0  0  0  0
  1  2  1  0
  2  3  2  0
  2  4  1  0
  4  5  1  0
  5  6  1  0
  6  7  2  0
  5  8  1  0
  8  9  1  0
  9 10  1  0
 10 11  1  0
 11 12  1  0
 12 13  1  0
 13 14  1  1
 13 15  1  0
 15 16  2  0
M  RAD  3   5   2  10   2  12   2
M  END
>  <docking_score>  (2) 
-3.4569999999999999

$$$$

     RDKit          3D

 16 15  0  0  0  0  0  0  0  0999 V2000
   14.3394   -3.1295   -5.3563 C   0  0  0  0  0  0  0  0  0  0  0  0
   14.4386   -1.7358   -4.8633 C   0  0  0  0  0  0  0  0  0  0  0  0
   13.4441   -0.9511   -4.9509 O   0  0  0  0  0  0  0  0  0  0  0  0
   15.6381   -1.2992   -4.3026 O   0  0  0  0  0  0  0  0  0  0  0  0
   16.8162   -1.9568   -4.7327 C   0  0  0  0  0  3  0  0  0  0  0  0
   17.4786   -1.1039   -5.7404 C   0  0  0  0  0  0  0  0  0  0  0  0
   18.5041   -0.5142   -5.3971 O   0  0  0  0  0  0  0  0  0  0  0  0
   17.7073   -2.3740   -3.6081 C   0  0  0  0  0  0  0  0  0  0  0  0
   16.9880   -2.4882   -2.2829 C   0  0  0  0  0  0  0  0  0  0  0  0
   17.3729   -3.8353   -1.6692 C   0  0  0  0  0  3  0  0  0  0  0  0
   16.6867   -4.9462   -2.4702 C   0  0  0  0  0  0  0  0  0  0  0  0
   17.7651   -5.8165   -3.0593 C   0  0  0  0  0  3  0  0  0  0  0  0
   17.5151   -6.0135   -4.5433 C   0  0  2  0  0  0  0  0  0  0  0  0
   16.1019   -6.5053   -4.7556 C   0  0  0  0  0  0  0  0  0  0  0  0
   18.4383   -7.0743   -5.0397 C   0  0  0  0  0  0  0  0  0  0  0  0
   18.2443   -8.2591   -4.7392 O   0  0  0  0  0  0  0  0  0  0  0  0
  1  2  1  0
  2  3  2  0
  2  4  1  0
  4  5  1  0
  5  6  1  0
  6  7  2  0
  5  8  1  0
  8  9  1  0
  9 10  1  0
 10 11  1  0
 11 12  1  0
 12 13  1  0
 13 14  1  1
 13 15  1  0
 15 16  2  0
M  RAD  3   5   2  10   2  12   2
M  END
>  <docking_score>  (3) 
-3.423

$$$$
