
     RDKit          3D

 15 15  0  0  0  0  0  0  0  0999 V2000
   13.8476   -0.1935   -4.9027 C   0  0  0  0  0  0  0  0  0  0  0  0
   14.9809   -0.3343   -5.7817 O   0  0  0  0  0  0  0  0  0  0  0  0
   15.1633   -1.6659   -5.9698 C   0  0  0  0  0  3  0  0  0  0  0  0
   14.3479   -2.4527   -5.2577 O   0  0  0  0  0  0  0  0  0  0  0  0
   14.9860   -3.6529   -4.8815 C   0  0  2  0  0  0  0  0  0  0  0  0
   16.0991   -3.2103   -3.8924 C   0  0  0  0  0  0  0  0  0  0  0  0
   15.7607   -4.2187   -6.0958 C   0  0  0  0  0  3  0  0  0  0  0  0
   15.3821   -5.7232   -6.2124 C   0  0  1  0  0  0  0  0  0  0  0  0
   16.6421   -6.4246   -5.6928 C   0  0  0  0  0  3  0  0  0  0  0  0
   17.2516   -7.2378   -6.8150 C   0  0  0  0  0  0  0  0  0  0  0  0
   18.0837   -8.3387   -6.2244 C   0  0  0  0  0  0  0  0  0  0  0  0
   18.0963   -8.3943   -4.8748 O   0  0  0  0  0  0  0  0  0  0  0  0
   17.4128   -9.3743   -5.6162 O   0  0  0  0  0  0  0  0  0  0  0  0
   14.2320   -6.0926   -5.3644 C   0  0  0  0  0  0  0  0  0  0  0  0
   14.5623   -7.1780   -4.5851 O   0  0  0  0  0  0  0  0  0  0  0  0
  1  2  1  0
  2  3  1  0
  3  4  1  0
  4  5  1  0
  5  6  1  1
  5  7  1  0
  8  7  1  1
  8  9  1  0
  9 10  1  0
 10 11  1  0
 11 12  1  0
 11 13  1  0
  8 14  1  0
 14 15  1  0
 13 12  1  0
M  RAD  3   3   2   7   2   9   2
M  END
>  <docking_score>  (1) 
-3.286

$$$$

     RDKit          3D

 15 15  0  0  0  0  0  0  0  0999 V2000
   16.7726   -3.7126   -1.9360 C   0  0  0  0  0  0  0  0  0  0  0  0
   17.1684   -4.9896   -2.4741 O   0  0  0  0  0  0  0  0  0  0  0  0
   16.2700   -5.2979   -3.4433 C   0  0  0  0  0  3  0  0  0  0  0  0
   15.7144   -4.2439   -4.0529 O   0  0  0  0  0  0  0  0  0  0  0  0
   14.9573   -4.6362   -5.1763 C   0  0  2  0  0  0  0  0  0  0  0  0
   15.9460   -5.4615   -6.0450 C   0  0  0  0  0  0  0  0  0  0  0  0
   14.6443   -3.3898   -6.0384 C   0  0  0  0  0  3  0  0  0  0  0  0
   15.1491   -2.1516   -5.2432 C   0  0  1  0  0  0  0  0  0  0  0  0
   16.1509   -1.5179   -6.2151 C   0  0  0  0  0  3  0  0  0  0  0  0
   17.4917   -1.3862   -5.5243 C   0  0  0  0  0  0  0  0  0  0  0  0
   18.3086   -2.6138   -5.8049 C   0  0  0  0  0  0  0  0  0  0  0  0
   19.6467   -2.4514   -5.7157 O   0  0  0  0  0  0  0  0  0  0  0  0
   18.9577   -3.1920   -4.7387 O   0  0  0  0  0  0  0  0  0  0  0  0
   14.0755   -1.1832   -4.9474 C   0  0  0  0  0  0  0  0  0  0  0  0
   14.2942   -0.0213   -5.6520 O   0  0  0  0  0  0  0  0  0  0  0  0
  1  2  1  0
  2  3  1  0
  3  4  1  0
  4  5  1  0
  5  6  1  6
  5  7  1  0
  8  7  1  6
  8  9  1  0
  9 10  1  0
 10 11  1  0
 11 12  1  0
 11 13  1  0
  8 14  1  0
 14 15  1  0
 13 12  1  0
M  RAD  3   3   2   7   2   9   2
M  END
>  <docking_score>  (2) 
-3.1070000000000002

$$$$

     RDKit          3D

 15 15  0  0  0  0  0  0  0  0999 V2000
   11.3597   15.1176    4.4162 C   0  0  0  0  0  0  0  0  0  0  0  0
   10.6728   14.8395    3.1802 O   0  0  0  0  0  0  0  0  0  0  0  0
    9.3635   14.6689    3.4935 C   0  0  0  0  0  3  0  0  0  0  0  0
    9.0073   13.4066    3.7595 O   0  0  0  0  0  0  0  0  0  0  0  0
    7.7015   13.1309    3.3035 C   0  0  2  0  0  0  0  0  0  0  0  0
    6.8523   14.3334    3.7995 C   0  0  0  0  0  0  0  0  0  0  0  0
    7.1360   11.9199    4.0835 C   0  0  0  0  0  3  0  0  0  0  0  0
    6.8965   10.7857    3.0458 C   0  0  1  0  0  0  0  0  0  0  0  0
    5.9462    9.8447    3.7950 C   0  0  0  0  0  3  0  0  0  0  0  0
    4.9244    9.2983    2.8206 C   0  0  0  0  0  0  0  0  0  0  0  0
    4.5014    7.9306    3.2719 C   0  0  0  0  0  0  0  0  0  0  0  0
    3.7182    7.9007    4.3722 O   0  0  0  0  0  0  0  0  0  0  0  0
    3.1761    7.5991    3.1101 O   0  0  0  0  0  0  0  0  0  0  0  0
    6.2396   11.2647    1.8140 C   0  0  0  0  0  0  0  0  0  0  0  0
    6.9710   10.8698    0.7169 O   0  0  0  0  0  0  0  0  0  0  0  0
  1  2  1  0
  2  3  1  0
  3  4  1  0
  4  5  1  0
  5  6  1  1
  5  7  1  0
  8  7  1  1
  8  9  1  0
  9 10  1  0
 10 11  1  0
 11 12  1  0
 11 13  1  0
  8 14  1  0
 14 15  1  0
 13 12  1  0
M  RAD  3   3   2   7   2   9   2
M  END
>  <docking_score>  (3) 
-3.028

$$$$
