
     RDKit          3D

 22 22  0  0  0  0  0  0  0  0999 V2000
   18.7988   -2.2905   -8.7105 C   0  0  0  0  0  0  0  0  0  0  0  0
   18.6754   -2.1898   -7.2153 C   0  0  0  0  0  0  0  0  0  0  0  0
   19.6999   -1.2502   -6.6252 C   0  0  0  0  0  0  0  0  0  0  0  0
   17.2783   -1.8830   -6.7645 C   0  0  0  0  0  0  0  0  0  0  0  0
   16.3225   -2.2642   -7.8676 C   0  0  0  0  0  0  0  0  0  0  0  0
   15.2544   -3.2156   -7.4321 C   0  0  0  0  0  0  0  0  0  0  0  0
   15.7752   -4.2940   -6.5340 C   0  0  1  0  0  0  0  0  0  0  0  0
   14.7937   -4.5642   -5.4328 C   0  0  0  0  0  0  0  0  0  0  0  0
   16.0016   -5.5398   -7.3510 C   0  0  0  0  0  3  0  0  0  0  0  0
   17.4906   -5.8268   -7.3680 C   0  0  0  0  0  0  0  0  0  0  0  0
   17.6933   -7.2880   -7.1098 C   0  0  0  0  0  0  0  0  0  0  0  0
   17.3111   -7.6123   -5.6819 C   0  0  1  0  0  0  0  0  0  0  0  0
   17.0332   -9.0959   -5.5711 C   0  0  0  0  0  0  0  0  0  0  0  0
   18.3414   -7.1291   -4.7135 C   0  0  0  0  0  3  0  0  0  0  0  0
   17.7927   -6.1554   -3.7210 C   0  0  0  0  0  0  0  0  0  0  0  0
   18.5542   -4.8627   -3.8146 C   0  0  0  0  0  0  0  0  0  0  0  0
   18.1526   -3.8665   -2.7672 C   0  0  2  0  0  0  0  0  0  0  0  0
   16.6959   -3.9451   -2.3403 C   0  0  0  0  0  0  0  0  0  0  0  0
   16.4366   -2.5405   -2.8402 C   0  0  1  0  0  0  0  0  0  0  0  0
   16.2454   -1.5902   -1.8538 O   0  0  0  0  0  0  0  0  0  0  0  0
   17.8385   -2.5326   -3.4127 C   0  0  1  0  0  0  0  0  0  0  0  0
   18.7344   -1.4345   -2.8811 C   0  0  0  0  0  2  0  0  0  0  0  0
  1  2  1  0
  2  3  1  0
  2  4  1  0
  4  5  1  0
  5  6  1  0
  6  7  1  0
  7  8  1  1
  7  9  1  0
  9 10  1  0
 10 11  1  0
 11 12  1  0
 12 13  1  6
 12 14  1  0
 14 15  1  0
 15 16  1  0
 17 16  1  6
 17 18  1  0
 18 19  1  0
 19 20  1  1
 19 21  1  0
 21 22  1  1
 21 17  1  0
M  RAD  3   9   2  14   2  22   3
M  END
>  <docking_score>  (1) 
-3.9910000000000001

$$$$

     RDKit          3D

 22 22  0  0  0  0  0  0  0  0999 V2000
   19.0413   -5.4968   -6.5485 C   0  0  0  0  0  0  0  0  0  0  0  0
   17.8984   -6.3828   -6.1362 C   0  0  0  0  0  0  0  0  0  0  0  0
   17.6557   -7.4927   -7.1313 C   0  0  0  0  0  0  0  0  0  0  0  0
   18.0264   -6.8830   -4.7281 C   0  0  0  0  0  0  0  0  0  0  0  0
   17.2913   -5.9358   -3.8127 C   0  0  0  0  0  0  0  0  0  0  0  0
   18.1899   -5.1786   -2.8881 C   0  0  0  0  0  0  0  0  0  0  0  0
   17.6449   -3.8309   -2.5312 C   0  0  1  0  0  0  0  0  0  0  0  0
   16.4888   -3.9776   -1.5873 C   0  0  0  0  0  0  0  0  0  0  0  0
   18.7411   -3.0165   -1.8939 C   0  0  0  0  0  3  0  0  0  0  0  0
   18.4599   -1.5521   -2.1700 C   0  0  0  0  0  0  0  0  0  0  0  0
   19.6875   -0.9403   -2.7714 C   0  0  0  0  0  0  0  0  0  0  0  0
   19.4185   -0.5667   -4.2129 C   0  0  1  0  0  0  0  0  0  0  0  0
   20.3508    0.5564   -4.6130 C   0  0  0  0  0  0  0  0  0  0  0  0
   19.5029   -1.7555   -5.1141 C   0  0  0  0  0  3  0  0  0  0  0  0
   18.4122   -1.7872   -6.1357 C   0  0  0  0  0  0  0  0  0  0  0  0
   17.2414   -0.9833   -5.6429 C   0  0  0  0  0  0  0  0  0  0  0  0
   15.9181   -1.6063   -5.9766 C   0  0  2  0  0  0  0  0  0  0  0  0
   14.9616   -1.7347   -4.8021 C   0  0  0  0  0  0  0  0  0  0  0  0
   14.9616   -3.2434   -4.9212 C   0  0  1  0  0  0  0  0  0  0  0  0
   13.7895   -3.7960   -5.4042 O   0  0  0  0  0  0  0  0  0  0  0  0
   16.0405   -3.1161   -5.9763 C   0  0  1  0  0  0  0  0  0  0  0  0
   15.6807   -3.7020   -7.3249 C   0  0  0  0  0  2  0  0  0  0  0  0
  1  2  1  0
  2  3  1  0
  2  4  1  0
  4  5  1  0
  5  6  1  0
  6  7  1  0
  7  8  1  1
  7  9  1  0
  9 10  1  0
 10 11  1  0
 11 12  1  0
 12 13  1  6
 12 14  1  0
 14 15  1  0
 15 16  1  0
 17 16  1  1
 17 18  1  0
 18 19  1  0
 19 20  1  6
 19 21  1  0
 21 22  1  6
 21 17  1  0
M  RAD  3   9   2  14   2  22   3
M  END
>  <docking_score>  (2) 
-3.8610000000000002

$$$$

     RDKit          3D

 22 22  0  0  0  0  0  0  0  0999 V2000
   13.3104   -4.9885   -6.1451 C   0  0  0  0  0  0  0  0  0  0  0  0
   14.6477   -4.3023   -6.0986 C   0  0  0  0  0  0  0  0  0  0  0  0
   14.7109   -3.2600   -5.0076 C   0  0  0  0  0  0  0  0  0  0  0  0
   15.7962   -5.2654   -6.0491 C   0  0  0  0  0  0  0  0  0  0  0  0
   17.0637   -4.5200   -6.3859 C   0  0  0  0  0  0  0  0  0  0  0  0
   18.2385   -4.9320   -5.5579 C   0  0  0  0  0  0  0  0  0  0  0  0
   17.8516   -5.7998   -4.4012 C   0  0  1  0  0  0  0  0  0  0  0  0
   18.9817   -6.7208   -4.0492 C   0  0  0  0  0  0  0  0  0  0  0  0
   17.5081   -4.9200   -3.2269 C   0  0  0  0  0  3  0  0  0  0  0  0
   18.7313   -4.8270   -2.3355 C   0  0  0  0  0  0  0  0  0  0  0  0
   18.5876   -3.6203   -1.4602 C   0  0  0  0  0  0  0  0  0  0  0  0
   19.8576   -2.7990   -1.5096 C   0  0  1  0  0  0  0  0  0  0  0  0
   21.0068   -3.6372   -0.9925 C   0  0  0  0  0  0  0  0  0  0  0  0
   20.0991   -2.2411   -2.8746 C   0  0  0  0  0  3  0  0  0  0  0  0
   19.1547   -1.1368   -3.2250 C   0  0  0  0  0  0  0  0  0  0  0  0
   18.4316   -1.4815   -4.4971 C   0  0  0  0  0  0  0  0  0  0  0  0
   18.9146   -0.6948   -5.6797 C   0  0  2  0  0  0  0  0  0  0  0  0
   19.7687   -1.4814   -6.6607 C   0  0  0  0  0  0  0  0  0  0  0  0
   20.9567   -0.5798   -6.4042 C   0  0  1  0  0  0  0  0  0  0  0  0
   21.2829    0.2741   -7.4419 O   0  0  0  0  0  0  0  0  0  0  0  0
   20.1551    0.0913   -5.3086 C   0  0  1  0  0  0  0  0  0  0  0  0
   19.9460    1.5786   -5.4963 C   0  0  0  0  0  2  0  0  0  0  0  0
  1  2  1  0
  2  3  1  0
  2  4  1  0
  4  5  1  0
  5  6  1  0
  6  7  1  0
  7  8  1  1
  7  9  1  0
  9 10  1  0
 10 11  1  0
 11 12  1  0
 12 13  1  6
 12 14  1  0
 14 15  1  0
 15 16  1  0
 17 16  1  1
 17 18  1  0
 18 19  1  0
 19 20  1  6
 19 21  1  0
 21 22  1  6
 21 17  1  0
M  RAD  3   9   2  14   2  22   3
M  END
>  <docking_score>  (3) 
-3.0859999999999999

$$$$
