
     RDKit          3D

 27 26  0  0  0  0  0  0  0  0999 V2000
   18.2378   -4.1417   -2.3131 C   0  0  0  0  0  0  0  0  0  0  0  0
   19.2973   -3.0138   -2.1668 C   0  0  0  0  0  0  0  0  0  0  0  0
   20.2990   -3.5162   -1.1087 C   0  0  0  0  0  0  0  0  0  0  0  0
   20.0397   -2.8920   -3.4648 C   0  0  0  0  0  0  0  0  0  0  0  0
   21.2380   -3.7551   -3.5687 C   0  0  0  0  0  0  0  0  0  0  0  0
   20.9746   -5.1712   -3.2567 C   0  0  0  0  0  0  0  0  0  0  0  0
   21.3818   -6.2071   -4.2298 C   0  0  1  0  0  0  0  0  0  0  0  0
   21.3825   -7.5993   -3.7051 C   0  0  0  0  0  0  0  0  0  0  0  0
   20.6052   -6.0791   -5.5224 C   0  0  0  0  0  3  0  0  0  0  0  0
   20.7814   -4.6949   -6.1250 C   0  0  0  0  0  0  0  0  0  0  0  0
   19.4220   -4.2152   -6.6477 C   0  0  0  0  0  0  0  0  0  0  0  0
   19.7513   -3.3581   -7.8781 C   0  0  2  0  0  0  0  0  0  0  0  0
   20.9722   -2.5083   -7.5725 C   0  0  0  0  0  0  0  0  0  0  0  0
   18.5360   -2.5208   -8.2475 C   0  0  0  0  0  3  0  0  0  0  0  0
   17.6776   -2.1998   -7.0871 C   0  0  0  0  0  0  0  0  0  0  0  0
   16.1943   -2.0466   -7.3963 C   0  0  1  0  0  0  0  0  0  0  0  0
   15.5788   -3.3050   -7.2942 N   0  0  0  0  0  0  0  0  0  0  0  0
   15.5794   -4.2548   -8.2962 C   0  0  0  0  0  0  0  0  0  0  0  0
   15.7532   -5.6882   -7.9855 C   0  0  0  0  0  0  0  0  0  0  0  0
   16.9778   -6.3362   -8.5652 C   0  0  0  0  0  0  0  0  0  0  0  0
   17.5647   -7.2303   -7.4894 C   0  0  0  0  0  0  0  0  0  0  0  0
   15.6594   -1.1360   -6.3080 C   0  0  0  0  0  3  0  0  0  0  0  0
   14.1804   -0.9982   -6.3002 C   0  0  0  0  0  3  0  0  0  0  0  0
   13.5615   -1.0334   -4.9441 C   0  0  0  0  0  0  0  0  0  0  0  0
   14.5347   -1.3859   -3.8772 C   0  0  0  0  0  0  0  0  0  0  0  0
   15.1563   -2.6145   -3.9075 O   0  0  0  0  0  0  0  0  0  0  0  0
   14.8117   -0.6074   -2.9495 O   0  0  0  0  0  0  0  0  0  0  0  0
  1  2  1  0
  2  3  1  0
  2  4  1  0
  4  5  1  0
  5  6  1  0
  6  7  1  0
  7  8  1  1
  7  9  1  0
  9 10  1  0
 10 11  1  0
 11 12  1  0
 12 13  1  1
 12 14  1  0
 14 15  1  0
 16 15  1  1
 16 17  1  0
 17 18  1  0
 18 19  1  0
 19 20  1  0
 20 21  1  0
 16 22  1  0
 22 23  1  0
 23 24  1  0
 24 25  1  0
 25 26  1  0
 25 27  2  0
M  RAD  4   9   2  14   2  22   2  23   2
M  END
>  <docking_score>  (1) 
-2.8290000000000002

$$$$

     RDKit          3D

 27 26  0  0  0  0  0  0  0  0999 V2000
    4.2288    9.5696    1.5609 C   0  0  0  0  0  0  0  0  0  0  0  0
    2.9719   10.0739    2.3240 C   0  0  0  0  0  0  0  0  0  0  0  0
    2.4036    8.8409    3.0536 C   0  0  0  0  0  0  0  0  0  0  0  0
    3.4163   11.0501    3.3728 C   0  0  0  0  0  0  0  0  0  0  0  0
    3.9066   12.3414    2.8399 C   0  0  0  0  0  0  0  0  0  0  0  0
    5.3213   12.6105    3.1533 C   0  0  0  0  0  0  0  0  0  0  0  0
    5.6572   13.7612    4.0187 C   0  0  1  0  0  0  0  0  0  0  0  0
    4.5025   14.6141    4.4097 C   0  0  0  0  0  0  0  0  0  0  0  0
    6.4822   13.3268    5.2109 C   0  0  0  0  0  3  0  0  0  0  0  0
    5.6700   12.4341    6.1348 C   0  0  0  0  0  0  0  0  0  0  0  0
    5.5087   13.1475    7.4826 C   0  0  0  0  0  0  0  0  0  0  0  0
    4.2347   12.5499    8.0965 C   0  0  2  0  0  0  0  0  0  0  0  0
    3.4576   11.8278    7.0099 C   0  0  0  0  0  0  0  0  0  0  0  0
    3.4254   13.6582    8.7533 C   0  0  0  0  0  3  0  0  0  0  0  0
    2.9579   13.3086   10.1118 C   0  0  0  0  0  0  0  0  0  0  0  0
    4.0464   13.2209   11.1732 C   0  0  1  0  0  0  0  0  0  0  0  0
    3.5960   13.8649   12.3374 N   0  0  0  0  0  0  0  0  0  0  0  0
    4.3410   14.7748   13.0607 C   0  0  0  0  0  0  0  0  0  0  0  0
    5.8033   14.8755   12.8797 C   0  0  0  0  0  0  0  0  0  0  0  0
    6.5565   15.5173   14.0095 C   0  0  0  0  0  0  0  0  0  0  0  0
    5.7869   15.2276   15.2842 C   0  0  0  0  0  0  0  0  0  0  0  0
    4.2059   11.7382   11.4491 C   0  0  0  0  0  3  0  0  0  0  0  0
    2.9237   11.0080   11.6196 C   0  0  0  0  0  3  0  0  0  0  0  0
    2.9023    9.6439   11.0179 C   0  0  0  0  0  0  0  0  0  0  0  0
    3.8620    8.7136   11.6684 C   0  0  0  0  0  0  0  0  0  0  0  0
    4.9276    8.2260   10.9448 O   0  0  0  0  0  0  0  0  0  0  0  0
    3.7387    8.3549   12.8514 O   0  0  0  0  0  0  0  0  0  0  0  0
  1  2  1  0
  2  3  1  0
  2  4  1  0
  4  5  1  0
  5  6  1  0
  6  7  1  0
  7  8  1  1
  7  9  1  0
  9 10  1  0
 10 11  1  0
 11 12  1  0
 12 13  1  6
 12 14  1  0
 14 15  1  0
 16 15  1  6
 16 17  1  0
 17 18  1  0
 18 19  1  0
 19 20  1  0
 20 21  1  0
 16 22  1  0
 22 23  1  0
 23 24  1  0
 24 25  1  0
 25 26  1  0
 25 27  2  0
M  RAD  4   9   2  14   2  22   2  23   2
M  END
>  <docking_score>  (2) 
-2.6040000000000001

$$$$

     RDKit          3D

 27 26  0  0  0  0  0  0  0  0999 V2000
   18.5046   -5.1895   -2.6928 C   0  0  0  0  0  0  0  0  0  0  0  0
   20.0086   -5.5089   -2.4642 C   0  0  0  0  0  0  0  0  0  0  0  0
   20.6192   -5.6727   -3.8698 C   0  0  0  0  0  0  0  0  0  0  0  0
   20.6548   -4.3119   -1.8315 C   0  0  0  0  0  0  0  0  0  0  0  0
   21.0800   -3.2667   -2.7900 C   0  0  0  0  0  0  0  0  0  0  0  0
   19.9614   -2.6481   -3.5235 C   0  0  0  0  0  0  0  0  0  0  0  0
   20.1361   -1.2920   -4.0860 C   0  0  1  0  0  0  0  0  0  0  0  0
   21.3798   -0.5911   -3.6669 C   0  0  0  0  0  0  0  0  0  0  0  0
   19.9552   -1.2953   -5.5886 C   0  0  0  0  0  3  0  0  0  0  0  0
   19.9729   -2.7143   -6.1328 C   0  0  0  0  0  0  0  0  0  0  0  0
   20.0678   -2.6478   -7.6618 C   0  0  0  0  0  0  0  0  0  0  0  0
   18.7455   -2.0117   -8.1130 C   0  0  2  0  0  0  0  0  0  0  0  0
   18.2247   -1.1191   -7.0002 C   0  0  0  0  0  0  0  0  0  0  0  0
   17.7615   -3.1096   -8.4883 C   0  0  0  0  0  3  0  0  0  0  0  0
   16.4105   -2.8954   -7.9267 C   0  0  0  0  0  0  0  0  0  0  0  0
   15.9147   -3.9866   -6.9873 C   0  0  1  0  0  0  0  0  0  0  0  0
   16.9680   -4.8817   -6.7379 N   0  0  0  0  0  0  0  0  0  0  0  0
   16.7973   -6.2129   -6.4140 C   0  0  0  0  0  0  0  0  0  0  0  0
   16.5040   -6.6267   -5.0269 C   0  0  0  0  0  0  0  0  0  0  0  0
   15.0493   -6.7813   -4.6873 C   0  0  0  0  0  0  0  0  0  0  0  0
   14.7548   -8.2687   -4.6394 C   0  0  0  0  0  0  0  0  0  0  0  0
   15.5548   -3.2643   -5.7033 C   0  0  0  0  0  3  0  0  0  0  0  0
   15.3678   -1.7990   -5.8594 C   0  0  0  0  0  3  0  0  0  0  0  0
   14.0449   -1.2900   -5.3967 C   0  0  0  0  0  0  0  0  0  0  0  0
   14.1352   -0.5308   -4.1219 C   0  0  0  0  0  0  0  0  0  0  0  0
   14.8201   -1.0743   -3.0578 O   0  0  0  0  0  0  0  0  0  0  0  0
   13.6111    0.5863   -3.9775 O   0  0  0  0  0  0  0  0  0  0  0  0
  1  2  1  0
  2  3  1  0
  2  4  1  0
  4  5  1  0
  5  6  1  0
  6  7  1  0
  7  8  1  6
  7  9  1  0
  9 10  1  0
 10 11  1  0
 11 12  1  0
 12 13  1  1
 12 14  1  0
 14 15  1  0
 16 15  1  6
 16 17  1  0
 17 18  1  0
 18 19  1  0
 19 20  1  0
 20 21  1  0
 16 22  1  0
 22 23  1  0
 23 24  1  0
 24 25  1  0
 25 26  1  0
 25 27  2  0
M  RAD  4   9   2  14   2  22   2  23   2
M  END
>  <docking_score>  (3) 
-2.2829999999999999

$$$$
