
     RDKit          3D

 33 37  0  0  0  0  0  0  0  0999 V2000
    7.1840   11.3913    5.3156 C   0  0  0  0  0  0  0  0  0  0  0  0
    7.5702   11.8957    4.0759 O   0  0  0  0  0  0  0  0  0  0  0  0
    8.0274   13.1843    3.8187 C   0  0  0  0  0  0  0  0  0  0  0  0
    9.1849   13.4603    3.1361 C   0  0  0  0  0  0  0  0  0  0  0  0
    9.6012   14.7361    2.9030 C   0  0  0  0  0  0  0  0  0  0  0  0
    8.8659   15.7957    3.3496 C   0  0  0  0  0  0  0  0  0  0  0  0
    7.7007   15.5590    4.0371 C   0  0  0  0  0  0  0  0  0  0  0  0
    7.2798   14.2495    4.2725 C   0  0  0  0  0  0  0  0  0  0  0  0
    6.0911   14.1166    4.9749 O   0  0  0  0  0  0  0  0  0  0  0  0
    5.2072   13.0358    4.7399 C   0  0  1  0  0  0  0  0  0  0  0  0
    4.7587   12.5658    6.0341 N   0  0  0  0  0  0  0  0  0  0  0  0
    4.9139   11.1498    6.1988 C   0  0  1  0  0  0  0  0  0  0  0  0
    3.7158   10.4148    6.3448 N   0  0  0  0  0  0  0  0  0  0  0  0
    4.0795   13.5477    3.8921 C   0  0  0  0  0  3  0  0  0  0  0  0
    2.8260   12.7166    4.0319 C   0  0  0  0  0  0  0  0  0  0  0  0
    2.5240   12.3875    5.4747 C   0  0  0  0  0  0  0  0  0  0  0  0
    2.5795   10.9098    5.6471 C   0  0  1  0  0  0  0  0  0  0  0  0
    2.3569   10.2057    4.3219 C   0  0  0  0  0  0  0  0  0  0  0  0
    3.9276    9.2111    3.9955 Si  0  0  2  0  0  4  0  0  0  0  0  0
    3.7138    8.3220    2.5529 O   0  0  0  0  0  0  0  0  0  0  0  0
    4.0991    8.0172    5.3809 C   0  0  0  0  0  0  0  0  0  0  0  0
    3.0528    7.6784    6.1288 C   0  0  0  0  0  0  0  0  0  0  0  0
    3.1886    6.7412    7.2159 C   0  0  0  0  0  0  0  0  0  0  0  0
    2.8203    5.4918    7.0750 C   0  0  0  0  0  0  0  0  0  0  0  0
    2.2675    5.0348    5.8133 C   0  0  0  0  0  0  0  0  0  0  0  0
    3.0938    4.7442    4.8194 C   0  0  0  0  0  0  0  0  0  0  0  0
    2.6478    4.2814    3.5232 C   0  0  0  0  0  0  0  0  0  0  0  0
    2.3016    5.0620    2.5466 C   0  0  0  0  0  0  0  0  0  0  0  0
    2.3850    6.3558    2.6136 C   0  0  0  0  0  0  0  0  0  0  0  0
    3.7398    6.9565    2.7426 C   0  0  0  0  0  0  0  0  0  0  0  0
    5.4024   10.3510    3.8923 C   0  0  0  0  0  0  0  0  0  0  0  0
    5.9371   10.5474    5.2762 C   0  0  1  0  0  0  0  0  0  0  0  0
    6.3028    9.1840    5.8285 C   0  0  0  0  0  2  0  0  0  0  0  0
  1  2  1  0
  2  3  1  0
  3  4  2  0
  4  5  1  0
  5  6  2  0
  6  7  1  0
  7  8  2  0
  8  9  1  0
  9 10  1  0
 10 11  1  0
 12 11  1  6
 12 13  1  0
 10 14  1  6
 14 15  1  0
 15 16  1  0
 17 16  1  6
 17 18  1  0
 19 18  1  1
 19 20  1  0
 19 21  1  0
 21 22  2  3
 22 23  1  0
 23 24  2  3
 24 25  1  0
 25 26  2  3
 26 27  1  0
 27 28  2  0
 28 29  2  0
 29 30  1  0
 19 31  1  0
 31 32  1  0
 32 33  1  1
 32  1  1  0
  8  3  1  0
 32 12  1  0
 17 13  1  0
 30 20  1  0
M  RAD  2  14   2  33   3
M  END
>  <docking_score>  (1) 
-6.5899999999999999

$$$$

     RDKit          3D

 33 37  0  0  0  0  0  0  0  0999 V2000
    5.7778    8.4143    4.2484 C   0  0  0  0  0  0  0  0  0  0  0  0
    4.7817    7.8544    5.0453 O   0  0  0  0  0  0  0  0  0  0  0  0
    3.9490    6.7954    4.6978 C   0  0  0  0  0  0  0  0  0  0  0  0
    3.7616    5.6846    5.4808 C   0  0  0  0  0  0  0  0  0  0  0  0
    2.9374    4.6665    5.1074 C   0  0  0  0  0  0  0  0  0  0  0  0
    2.2622    4.7226    3.9225 C   0  0  0  0  0  0  0  0  0  0  0  0
    2.4245    5.8192    3.1115 C   0  0  0  0  0  0  0  0  0  0  0  0
    3.2703    6.8590    3.5001 C   0  0  0  0  0  0  0  0  0  0  0  0
    3.3658    7.9205    2.6124 O   0  0  0  0  0  0  0  0  0  0  0  0
    3.5773    9.2465    3.0613 C   0  0  1  0  0  0  0  0  0  0  0  0
    4.5631    9.8398    2.1819 N   0  0  0  0  0  0  0  0  0  0  0  0
    5.6510   10.4475    2.8913 C   0  0  1  0  0  0  0  0  0  0  0  0
    5.7685   11.8487    2.7496 N   0  0  0  0  0  0  0  0  0  0  0  0
    2.2575    9.9594    3.0092 C   0  0  0  0  0  3  0  0  0  0  0  0
    2.4124   11.4583    2.9047 C   0  0  0  0  0  0  0  0  0  0  0  0
    3.4601   11.8489    1.8893 C   0  0  0  0  0  0  0  0  0  0  0  0
    4.5552   12.5736    2.5905 C   0  0  1  0  0  0  0  0  0  0  0  0
    4.0568   13.1689    3.8938 C   0  0  0  0  0  0  0  0  0  0  0  0
    5.0869   12.3649    5.2559 Si  0  0  2  0  0  4  0  0  0  0  0  0
    4.6349   13.0532    6.7524 O   0  0  0  0  0  0  0  0  0  0  0  0
    6.8393   12.8090    4.9303 C   0  0  0  0  0  0  0  0  0  0  0  0
    7.1529   13.8564    4.1730 C   0  0  0  0  0  0  0  0  0  0  0  0
    8.5287   14.2040    3.9181 C   0  0  0  0  0  0  0  0  0  0  0  0
    9.1080   15.1777    4.5761 C   0  0  0  0  0  0  0  0  0  0  0  0
    8.3650   15.9222    5.5761 C   0  0  0  0  0  0  0  0  0  0  0  0
    8.2151   15.3993    6.7840 C   0  0  0  0  0  0  0  0  0  0  0  0
    7.4938   16.0569    7.8519 C   0  0  0  0  0  0  0  0  0  0  0  0
    6.2123   15.9676    8.0331 C   0  0  0  0  0  0  0  0  0  0  0  0
    5.4471   15.2148    7.3030 C   0  0  0  0  0  0  0  0  0  0  0  0
    5.6573   13.7436    7.3684 C   0  0  0  0  0  0  0  0  0  0  0  0
    4.8397   10.5146    5.2438 C   0  0  0  0  0  0  0  0  0  0  0  0
    5.8256    9.9191    4.2883 C   0  0  1  0  0  0  0  0  0  0  0  0
    7.2143   10.3098    4.7534 C   0  0  0  0  0  2  0  0  0  0  0  0
  1  2  1  0
  2  3  1  0
  3  4  2  0
  4  5  1  0
  5  6  2  0
  6  7  1  0
  7  8  2  0
  8  9  1  0
  9 10  1  0
 10 11  1  0
 12 11  1  1
 12 13  1  0
 10 14  1  6
 14 15  1  0
 15 16  1  0
 17 16  1  1
 17 18  1  0
 19 18  1  6
 19 20  1  0
 19 21  1  0
 21 22  2  3
 22 23  1  0
 23 24  2  3
 24 25  1  0
 25 26  2  3
 26 27  1  0
 27 28  2  0
 28 29  2  0
 29 30  1  0
 19 31  1  0
 31 32  1  0
 32 33  1  1
 32  1  1  0
  8  3  1  0
 32 12  1  0
 17 13  1  0
 30 20  1  0
M  RAD  2  14   2  33   3
M  END
>  <docking_score>  (2) 
-6.2999999999999998

$$$$

     RDKit          3D

 33 37  0  0  0  0  0  0  0  0999 V2000
   18.2049   -7.2891   -5.3571 C   0  0  0  0  0  0  0  0  0  0  0  0
   18.0412   -7.6870   -6.6820 O   0  0  0  0  0  0  0  0  0  0  0  0
   18.8424   -8.5892   -7.3746 C   0  0  0  0  0  0  0  0  0  0  0  0
   18.3524   -9.6638   -8.0725 C   0  0  0  0  0  0  0  0  0  0  0  0
   19.1684  -10.5269   -8.7394 C   0  0  0  0  0  0  0  0  0  0  0  0
   20.5210  -10.3445   -8.7325 C   0  0  0  0  0  0  0  0  0  0  0  0
   21.0489   -9.2794   -8.0445 C   0  0  0  0  0  0  0  0  0  0  0  0
   20.2073   -8.3988   -7.3634 C   0  0  0  0  0  0  0  0  0  0  0  0
   20.8373   -7.3562   -6.7000 O   0  0  0  0  0  0  0  0  0  0  0  0
   20.2220   -6.0893   -6.5552 C   0  0  1  0  0  0  0  0  0  0  0  0
   20.4595   -5.6558   -5.1941 N   0  0  0  0  0  0  0  0  0  0  0  0
   19.2615   -5.2454   -4.5213 C   0  0  1  0  0  0  0  0  0  0  0  0
   19.1994   -3.8812   -4.1576 N   0  0  0  0  0  0  0  0  0  0  0  0
   20.8370   -5.1676   -7.5675 C   0  0  0  0  0  3  0  0  0  0  0  0
   20.7154   -3.7136   -7.1765 C   0  0  0  0  0  0  0  0  0  0  0  0
   21.0603   -3.4883   -5.7234 C   0  0  0  0  0  0  0  0  0  0  0  0
   19.8552   -2.9637   -5.0243 C   0  0  1  0  0  0  0  0  0  0  0  0
   18.9042   -2.3112   -6.0097 C   0  0  0  0  0  0  0  0  0  0  0  0
   17.2951   -3.2920   -5.9009 Si  0  0  2  0  0  4  0  0  0  0  0  0
   16.1448   -2.5581   -6.9283 O   0  0  0  0  0  0  0  0  0  0  0  0
   16.6946   -3.1395   -4.1717 C   0  0  0  0  0  0  0  0  0  0  0  0
   17.1073   -2.1485   -3.3865 C   0  0  0  0  0  0  0  0  0  0  0  0
   16.6354   -2.0298   -2.0294 C   0  0  0  0  0  0  0  0  0  0  0  0
   15.6933   -1.1738   -1.7189 C   0  0  0  0  0  0  0  0  0  0  0  0
   15.1106   -0.3299   -2.7457 C   0  0  0  0  0  0  0  0  0  0  0  0
   14.1779   -0.8364   -3.5385 C   0  0  0  0  0  0  0  0  0  0  0  0
   13.5336   -0.0826   -4.5919 C   0  0  0  0  0  0  0  0  0  0  0  0
   14.0006    0.0387   -5.7961 C   0  0  0  0  0  0  0  0  0  0  0  0
   15.0747   -0.5677   -6.2010 C   0  0  0  0  0  0  0  0  0  0  0  0
   15.0521   -2.0542   -6.2547 C   0  0  0  0  0  0  0  0  0  0  0  0
   17.5952   -5.0758   -6.3628 C   0  0  0  0  0  0  0  0  0  0  0  0
   18.0084   -5.8135   -5.1281 C   0  0  1  0  0  0  0  0  0  0  0  0
   16.8986   -5.6638   -4.1066 C   0  0  0  0  0  2  0  0  0  0  0  0
  1  2  1  0
  2  3  1  0
  3  4  2  0
  4  5  1  0
  5  6  2  0
  6  7  1  0
  7  8  2  0
  8  9  1  0
  9 10  1  0
 10 11  1  0
 12 11  1  6
 12 13  1  0
 10 14  1  6
 14 15  1  0
 15 16  1  0
 17 16  1  6
 17 18  1  0
 19 18  1  1
 19 20  1  0
 19 21  1  0
 21 22  2  3
 22 23  1  0
 23 24  2  3
 24 25  1  0
 25 26  2  3
 26 27  1  0
 27 28  2  0
 28 29  2  0
 29 30  1  0
 19 31  1  0
 31 32  1  0
 32 33  1  1
 32  1  1  0
  8  3  1  0
 32 12  1  0
 17 13  1  0
 30 20  1  0
M  RAD  2  14   2  33   3
M  END
>  <docking_score>  (3) 
-5.1959999999999997

$$$$
