
     RDKit          3D

 21 23  0  0  0  0  0  0  0  0999 V2000
   17.2674   -2.9141   -4.8119 C   0  0  0  0  0  0  0  0  0  0  0  0
   17.1906   -4.3154   -4.8967 O   0  0  0  0  0  0  0  0  0  0  0  0
   16.6655   -5.0641   -3.7453 C   0  0  0  0  0  0  0  0  0  0  0  0
   15.7100   -5.8882   -3.9757 C   0  0  0  0  0  0  0  0  0  0  0  0
   15.0480   -6.2035   -5.2175 C   0  0  0  0  0  0  0  0  0  0  0  0
   14.6991   -5.2710   -6.0490 C   0  0  0  0  0  0  0  0  0  0  0  0
   14.8307   -3.8386   -6.0256 C   0  0  0  0  0  0  0  0  0  0  0  0
   13.8747   -3.0650   -5.3246 N   0  0  0  0  0  2  0  0  0  0  0  0
   14.3376   -1.6779   -5.1056 C   0  0  1  0  0  0  0  0  0  0  0  0
   13.2493   -0.8567   -4.8083 O   0  0  0  0  0  0  0  0  0  0  0  0
   15.1967   -1.7815   -3.8688 C   0  0  0  0  0  0  0  0  0  0  0  0
   16.3529   -2.2798   -3.7898 C   0  0  0  0  0  0  0  0  0  0  0  0
   17.1041   -2.4948   -2.4996 C   0  0  0  0  0  0  0  0  0  0  0  0
   18.0787   -1.7756   -2.0143 C   0  0  0  0  0  0  0  0  0  0  0  0
   19.3529   -1.2740   -2.7734 C   0  0  0  0  0  0  0  0  0  0  0  0
   19.4183   -1.0203   -4.1075 C   0  0  0  0  0  0  0  0  0  0  0  0
   19.3195   -1.6037   -5.4237 C   0  0  2  0  0  0  0  0  0  0  0  0
   18.1149   -2.5133   -5.6157 N   0  0  0  0  0  0  0  0  0  0  0  0
   20.4004   -2.2444   -5.9351 O   0  0  0  0  0  0  0  0  0  0  0  0
   17.1228   -3.6800   -1.6161 C   0  0  0  0  0  0  0  0  0  0  0  0
   17.1497   -4.9078   -2.4404 O   0  0  0  0  0  0  0  0  0  0  0  0
  1  2  1  0
  2  3  1  0
  3  4  2  3
  4  5  1  0
  5  6  2  3
  6  7  1  0
  7  8  1  0
  8  9  1  0
  9 10  1  1
  9 11  1  0
 11 12  2  3
 12 13  1  0
 13 14  2  3
 14 15  1  0
 15 16  2  3
 16 17  1  0
 17 18  1  0
 17 19  1  1
 13 20  1  0
 20 21  1  0
 12  1  1  0
  1 18  2  3
 21  3  1  0
M  CHG  1   8   1
M  RAD  1   8   3
M  END
>  <docking_score>  (1) 
-6.2110000000000003

$$$$

     RDKit          3D

 21 23  0  0  0  0  0  0  0  0999 V2000
   17.4059   -3.1812   -5.0683 C   0  0  0  0  0  0  0  0  0  0  0  0
   17.2391   -3.7810   -6.3290 O   0  0  0  0  0  0  0  0  0  0  0  0
   16.1920   -4.8004   -6.4922 C   0  0  0  0  0  0  0  0  0  0  0  0
   15.3601   -4.6292   -7.4534 C   0  0  0  0  0  0  0  0  0  0  0  0
   15.2837   -3.5653   -8.4238 C   0  0  0  0  0  0  0  0  0  0  0  0
   15.4273   -2.3245   -8.0739 C   0  0  0  0  0  0  0  0  0  0  0  0
   15.6730   -1.6860   -6.8082 C   0  0  0  0  0  0  0  0  0  0  0  0
   14.5861   -1.4247   -5.9399 N   0  0  0  0  0  2  0  0  0  0  0  0
   15.0374   -1.0977   -4.5704 C   0  0  1  0  0  0  0  0  0  0  0  0
   14.0142   -0.4512   -3.8761 O   0  0  0  0  0  0  0  0  0  0  0  0
   15.2517   -2.4501   -3.9349 C   0  0  0  0  0  0  0  0  0  0  0  0
   16.2015   -3.2496   -4.1583 C   0  0  0  0  0  0  0  0  0  0  0  0
   16.2850   -4.6517   -3.6086 C   0  0  0  0  0  0  0  0  0  0  0  0
   17.0120   -5.0759   -2.6115 C   0  0  0  0  0  0  0  0  0  0  0  0
   18.5320   -4.7948   -2.3622 C   0  0  0  0  0  0  0  0  0  0  0  0
   19.2007   -3.6878   -2.7812 C   0  0  0  0  0  0  0  0  0  0  0  0
   19.6341   -2.9405   -3.9372 C   0  0  2  0  0  0  0  0  0  0  0  0
   18.5545   -2.7348   -4.9896 N   0  0  0  0  0  0  0  0  0  0  0  0
   20.7623   -3.3323   -4.5808 O   0  0  0  0  0  0  0  0  0  0  0  0
   15.7992   -5.9169   -4.1993 C   0  0  0  0  0  0  0  0  0  0  0  0
   16.0666   -5.9154   -5.6540 O   0  0  0  0  0  0  0  0  0  0  0  0
  1  2  1  0
  2  3  1  0
  3  4  2  3
  4  5  1  0
  5  6  2  3
  6  7  1  0
  7  8  1  0
  8  9  1  0
  9 10  1  1
  9 11  1  0
 11 12  2  3
 12 13  1  0
 13 14  2  3
 14 15  1  0
 15 16  2  3
 16 17  1  0
 17 18  1  0
 17 19  1  6
 13 20  1  0
 20 21  1  0
 12  1  1  0
  1 18  2  3
 21  3  1  0
M  CHG  1   8   1
M  RAD  1   8   3
M  END
>  <docking_score>  (2) 
-6.0110000000000001

$$$$

     RDKit          3D

 21 23  0  0  0  0  0  0  0  0999 V2000
   16.1305   -3.5456   -5.2441 C   0  0  0  0  0  0  0  0  0  0  0  0
   17.2399   -3.6185   -6.1049 O   0  0  0  0  0  0  0  0  0  0  0  0
   18.4931   -4.1930   -5.5935 C   0  0  0  0  0  0  0  0  0  0  0  0
   19.0219   -5.1375   -6.2815 C   0  0  0  0  0  0  0  0  0  0  0  0
   18.5689   -5.7451   -7.5084 C   0  0  0  0  0  0  0  0  0  0  0  0
   17.3222   -6.0576   -7.6837 C   0  0  0  0  0  0  0  0  0  0  0  0
   16.1540   -5.9273   -6.8542 C   0  0  0  0  0  0  0  0  0  0  0  0
   15.8848   -6.9128   -5.8744 N   0  0  0  0  0  2  0  0  0  0  0  0
   14.8721   -6.4600   -4.8969 C   0  0  1  0  0  0  0  0  0  0  0  0
   14.3335   -7.5602   -4.2286 O   0  0  0  0  0  0  0  0  0  0  0  0
   15.6734   -5.6552   -3.9025 C   0  0  0  0  0  0  0  0  0  0  0  0
   16.1580   -4.5035   -4.0759 C   0  0  0  0  0  0  0  0  0  0  0  0
   17.0788   -3.8091   -3.1039 C   0  0  0  0  0  0  0  0  0  0  0  0
   16.7804   -2.8564   -2.2636 C   0  0  0  0  0  0  0  0  0  0  0  0
   15.9701   -1.5505   -2.5629 C   0  0  0  0  0  0  0  0  0  0  0  0
   15.0125   -1.4274   -3.5201 C   0  0  0  0  0  0  0  0  0  0  0  0
   14.7532   -1.4690   -4.9391 C   0  0  2  0  0  0  0  0  0  0  0  0
   15.3682   -2.6641   -5.6524 N   0  0  0  0  0  0  0  0  0  0  0  0
   15.0220   -0.3668   -5.6831 O   0  0  0  0  0  0  0  0  0  0  0  0
   18.5556   -3.8286   -3.0397 C   0  0  0  0  0  0  0  0  0  0  0  0
   19.1086   -3.7658   -4.4101 O   0  0  0  0  0  0  0  0  0  0  0  0
  1  2  1  0
  2  3  1  0
  3  4  2  3
  4  5  1  0
  5  6  2  3
  6  7  1  0
  7  8  1  0
  8  9  1  0
  9 10  1  1
  9 11  1  0
 11 12  2  3
 12 13  1  0
 13 14  2  3
 14 15  1  0
 15 16  2  3
 16 17  1  0
 17 18  1  0
 17 19  1  6
 13 20  1  0
 20 21  1  0
 12  1  1  0
  1 18  2  3
 21  3  1  0
M  CHG  1   8   1
M  RAD  1   8   3
M  END
>  <docking_score>  (3) 
-5.8109999999999999

$$$$
