
     RDKit          3D

 18 19  0  0  0  0  0  0  0  0999 V2000
   15.4845   -2.4575   -3.8068 O   0  0  0  0  0  0  0  0  0  0  0  0
   16.3809   -3.1501   -3.2713 C   0  0  0  0  0  0  0  0  0  0  0  0
   17.5707   -2.6753   -2.5889 C   0  0  0  0  0  0  0  0  0  0  0  0
   18.0089   -1.4051   -2.2340 C   0  0  0  0  0  0  0  0  0  0  0  0
   19.2028   -1.2714   -1.5815 C   0  0  0  0  0  0  0  0  0  0  0  0
   19.9698   -2.3669   -1.2740 C   0  0  0  0  0  0  0  0  0  0  0  0
   19.5460   -3.6302   -1.6206 C   0  0  0  0  0  0  0  0  0  0  0  0
   18.3468   -3.7850   -2.2779 C   0  0  0  0  0  0  0  0  0  0  0  0
   17.6830   -4.9931   -2.7478 C   0  0  0  0  0  0  0  0  0  0  0  0
   18.1358   -6.1646   -2.7366 O   0  0  0  0  0  0  0  0  0  0  0  0
   16.3456   -4.6350   -3.2619 C   0  0  0  0  0  0  0  0  0  0  0  0
   16.2080   -5.2109   -4.6408 C   0  0  0  0  0  0  0  0  0  0  0  0
   15.1123   -6.1781   -4.7194 N   0  0  0  0  0  0  0  0  0  0  0  0
   15.7420   -7.4145   -5.0227 N   0  0  0  0  0  0  0  0  0  0  0  0
   16.9720   -7.4271   -5.6948 C   0  0  0  0  0  0  0  0  0  0  0  0
   17.4254   -8.3904   -6.4520 C   0  0  0  0  0  0  0  0  0  0  0  0
   18.7313   -8.2421   -7.0796 C   0  0  0  0  0  0  0  0  0  0  0  0
   19.7889   -8.4225   -6.4268 O   0  0  0  0  0  0  0  0  0  0  0  0
  1  2  2  0
  2  3  1  0
  3  4  2  0
  4  5  1  0
  5  6  2  0
  6  7  1  0
  7  8  2  0
  8  9  1  0
  9 10  2  0
  9 11  1  0
 11 12  1  0
 12 13  1  0
 13 14  1  0
 14 15  1  0
 15 16  2  3
 16 17  1  0
 17 18  2  0
 11  2  1  0
  8  3  1  0
M  END
>  <docking_score>  (1) 
-4.5510000000000002

$$$$

     RDKit          3D

 18 19  0  0  0  0  0  0  0  0999 V2000
   16.2075   -4.3224   -2.5169 O   0  0  0  0  0  0  0  0  0  0  0  0
   17.3052   -4.8649   -2.7824 C   0  0  0  0  0  0  0  0  0  0  0  0
   18.6198   -4.4687   -2.3116 C   0  0  0  0  0  0  0  0  0  0  0  0
   19.0434   -3.5115   -1.3974 C   0  0  0  0  0  0  0  0  0  0  0  0
   20.3815   -3.3678   -1.1567 C   0  0  0  0  0  0  0  0  0  0  0  0
   21.3063   -4.1504   -1.8010 C   0  0  0  0  0  0  0  0  0  0  0  0
   20.8985   -5.1019   -2.7088 C   0  0  0  0  0  0  0  0  0  0  0  0
   19.5556   -5.2615   -2.9644 C   0  0  0  0  0  0  0  0  0  0  0  0
   18.8744   -6.1811   -3.8649 C   0  0  0  0  0  0  0  0  0  0  0  0
   19.3999   -6.9686   -4.6904 O   0  0  0  0  0  0  0  0  0  0  0  0
   17.4165   -6.0544   -3.6650 C   0  0  0  0  0  0  0  0  0  0  0  0
   16.7811   -5.8309   -5.0060 C   0  0  0  0  0  0  0  0  0  0  0  0
   15.3346   -6.0504   -4.9658 N   0  0  0  0  0  0  0  0  0  0  0  0
   14.7974   -5.0868   -5.8602 N   0  0  0  0  0  0  0  0  0  0  0  0
   14.2862   -3.8796   -5.3639 C   0  0  0  0  0  0  0  0  0  0  0  0
   14.9046   -2.7288   -5.3526 C   0  0  0  0  0  0  0  0  0  0  0  0
   14.2258   -1.5663   -4.7967 C   0  0  0  0  0  0  0  0  0  0  0  0
   14.6098   -0.4011   -5.0653 O   0  0  0  0  0  0  0  0  0  0  0  0
  1  2  2  0
  2  3  1  0
  3  4  2  0
  4  5  1  0
  5  6  2  0
  6  7  1  0
  7  8  2  0
  8  9  1  0
  9 10  2  0
  9 11  1  0
 11 12  1  0
 12 13  1  0
 13 14  1  0
 14 15  1  0
 15 16  2  3
 16 17  1  0
 17 18  2  0
 11  2  1  0
  8  3  1  0
M  END
>  <docking_score>  (2) 
-4.3970000000000002

$$$$

     RDKit          3D

 18 19  0  0  0  0  0  0  0  0999 V2000
   18.6618   -1.4343   -4.0923 O   0  0  0  0  0  0  0  0  0  0  0  0
   18.3363   -2.4762   -3.4772 C   0  0  0  0  0  0  0  0  0  0  0  0
   18.8211   -3.8243   -3.7106 C   0  0  0  0  0  0  0  0  0  0  0  0
   19.8072   -4.3391   -4.5436 C   0  0  0  0  0  0  0  0  0  0  0  0
   20.0410   -5.6861   -4.5442 C   0  0  0  0  0  0  0  0  0  0  0  0
   19.3201   -6.5316   -3.7389 C   0  0  0  0  0  0  0  0  0  0  0  0
   18.3406   -6.0330   -2.9097 C   0  0  0  0  0  0  0  0  0  0  0  0
   18.0907   -4.6797   -2.8951 C   0  0  0  0  0  0  0  0  0  0  0  0
   17.1248   -3.9119   -2.1217 C   0  0  0  0  0  0  0  0  0  0  0  0
   16.2284   -4.3582   -1.3634 O   0  0  0  0  0  0  0  0  0  0  0  0
   17.3546   -2.4730   -2.3625 C   0  0  0  0  0  0  0  0  0  0  0  0
   16.0462   -1.8529   -2.7568 C   0  0  0  0  0  0  0  0  0  0  0  0
   15.4480   -2.5306   -3.9079 N   0  0  0  0  0  0  0  0  0  0  0  0
   15.0497   -1.4817   -4.7787 N   0  0  0  0  0  0  0  0  0  0  0  0
   15.4821   -1.4768   -6.1120 C   0  0  0  0  0  0  0  0  0  0  0  0
   16.3172   -2.3232   -6.6533 C   0  0  0  0  0  0  0  0  0  0  0  0
   16.6622   -2.1750   -8.0606 C   0  0  0  0  0  0  0  0  0  0  0  0
   17.8582   -2.2105   -8.4424 O   0  0  0  0  0  0  0  0  0  0  0  0
  1  2  2  0
  2  3  1  0
  3  4  2  0
  4  5  1  0
  5  6  2  0
  6  7  1  0
  7  8  2  0
  8  9  1  0
  9 10  2  0
  9 11  1  0
 11 12  1  0
 12 13  1  0
 13 14  1  0
 14 15  1  0
 15 16  2  3
 16 17  1  0
 17 18  2  0
 11  2  1  0
  8  3  1  0
M  END
>  <docking_score>  (3) 
-4.1890000000000001

$$$$
