
     RDKit          3D

 29 29  0  0  0  0  0  0  0  0999 V2000
   11.8231   14.3238   13.0280 C   0  0  0  0  0  0  0  0  0  0  0  0
   11.3473   13.7009   11.7456 C   0  0  0  0  0  0  0  0  0  0  0  0
   11.9863   12.3562   11.5096 C   0  0  0  0  0  0  0  0  0  0  0  0
    9.8441   13.5759   11.6864 C   0  0  0  0  0  0  0  0  0  0  0  0
    9.2699   14.6917   10.8574 C   0  0  0  0  0  0  0  0  0  0  0  0
    7.7544   14.6289   10.9635 C   0  0  0  0  0  0  0  0  0  0  0  0
    7.1160   15.1168    9.6999 C   0  0  1  0  0  0  0  0  0  0  0  0
    5.9777   16.0745    9.9308 C   0  0  0  0  0  0  0  0  0  0  0  0
    8.0950   15.6478    8.6972 C   0  0  0  0  0  3  0  0  0  0  0  0
    7.3212   15.9580    7.4262 C   0  0  0  0  0  0  0  0  0  0  0  0
    7.3085   14.7082    6.5776 C   0  0  1  0  0  0  0  0  0  0  0  0
    5.9143   14.2909    6.2367 C   0  0  2  0  0  0  0  0  0  0  0  0
    4.8713   15.2844    6.6551 C   0  0  0  0  0  0  0  0  0  0  0  0
    5.6088   12.8839    6.7049 C   0  0  0  0  0  0  0  0  0  0  0  0
    4.2718   12.4580    6.1337 C   0  0  1  0  0  0  0  0  0  0  0  0
    3.8031   13.4147    5.0660 C   0  0  0  0  0  2  0  0  0  0  0  0
    4.2841   11.0750    5.5704 C   0  0  0  0  0  0  0  0  0  0  0  0
    5.2126   10.8993    4.4125 C   0  0  0  0  0  0  0  0  0  0  0  0
    4.5261   10.4892    3.1390 C   0  0  2  0  0  0  0  0  0  0  0  0
    3.2208   10.0808    3.3472 O   0  0  0  0  0  0  0  0  0  0  0  0
    5.3144    9.3217    2.5458 C   0  0  0  0  0  0  0  0  0  0  0  0
    4.5491   11.6145    2.1246 C   0  0  0  0  0  0  0  0  0  0  0  0
    5.8609   12.0488    1.9370 O   0  0  0  0  0  0  0  0  0  0  0  0
    6.2338   12.8438    2.9378 O   0  0  0  0  0  0  0  0  0  0  0  0
    6.0636   14.1723    2.5492 C   0  0  0  0  0  0  0  0  0  0  0  0
    7.3196   14.9932    2.7495 C   0  0  0  0  0  0  0  0  0  0  0  0
    8.4457   14.1107    3.2471 C   0  0  0  0  0  0  0  0  0  0  0  0
    8.2740   13.7829    4.7120 C   0  0  0  0  0  0  0  0  0  0  0  0
    8.0319   14.9652    5.4253 O   0  0  0  0  0  0  0  0  0  0  0  0
  1  2  1  0
  2  3  1  0
  2  4  1  0
  4  5  1  0
  5  6  1  0
  6  7  1  0
  7  8  1  1
  7  9  1  0
  9 10  1  0
 11 10  1  1
 11 12  1  0
 12 13  1  1
 12 14  1  0
 14 15  1  0
 15 16  1  6
 15 17  1  0
 17 18  1  0
 18 19  1  0
 19 20  1  0
 19 21  1  6
 19 22  1  0
 22 23  1  0
 23 24  1  0
 24 25  1  0
 25 26  1  0
 26 27  1  0
 27 28  1  0
 28 29  1  0
 29 11  1  0
M  RAD  2   9   2  16   3
M  END
>  <docking_score>  (1) 
-3.9809999999999999

$$$$

     RDKit          3D

 29 29  0  0  0  0  0  0  0  0999 V2000
   20.9583   -3.2435   -0.9646 C   0  0  0  0  0  0  0  0  0  0  0  0
   20.2307   -1.9336   -1.0825 C   0  0  0  0  0  0  0  0  0  0  0  0
   21.1848   -0.7668   -1.1012 C   0  0  0  0  0  0  0  0  0  0  0  0
   19.3268   -1.8811   -2.2904 C   0  0  0  0  0  0  0  0  0  0  0  0
   19.4765   -0.5553   -2.9845 C   0  0  0  0  0  0  0  0  0  0  0  0
   19.0642   -0.7323   -4.4373 C   0  0  0  0  0  0  0  0  0  0  0  0
   20.0076   -0.0066   -5.3460 C   0  0  1  0  0  0  0  0  0  0  0  0
   21.3822    0.1812   -4.7616 C   0  0  0  0  0  0  0  0  0  0  0  0
   20.0651   -0.5747   -6.7316 C   0  0  0  0  0  3  0  0  0  0  0  0
   21.0543   -1.7285   -6.7094 C   0  0  0  0  0  0  0  0  0  0  0  0
   20.2883   -2.9982   -6.9982 C   0  0  1  0  0  0  0  0  0  0  0  0
   20.4164   -3.9822   -5.8805 C   0  0  2  0  0  0  0  0  0  0  0  0
   21.1145   -3.4310   -4.6727 C   0  0  0  0  0  0  0  0  0  0  0  0
   20.9962   -5.3015   -6.3449 C   0  0  0  0  0  0  0  0  0  0  0  0
   20.8881   -6.3071   -5.2170 C   0  0  1  0  0  0  0  0  0  0  0  0
   19.9964   -5.7971   -4.1126 C   0  0  0  0  0  2  0  0  0  0  0  0
   20.3886   -7.6422   -5.6624 C   0  0  0  0  0  0  0  0  0  0  0  0
   19.0023   -7.6165   -6.2202 C   0  0  0  0  0  0  0  0  0  0  0  0
   18.0224   -8.4614   -5.4540 C   0  0  2  0  0  0  0  0  0  0  0  0
   18.6430   -9.3151   -4.5596 O   0  0  0  0  0  0  0  0  0  0  0  0
   17.2437   -9.2986   -6.4683 C   0  0  0  0  0  0  0  0  0  0  0  0
   17.0214   -7.5954   -4.7162 C   0  0  0  0  0  0  0  0  0  0  0  0
   16.4175   -6.7124   -5.6108 O   0  0  0  0  0  0  0  0  0  0  0  0
   17.2270   -5.6870   -5.8680 O   0  0  0  0  0  0  0  0  0  0  0  0
   16.8749   -4.6147   -5.0487 C   0  0  0  0  0  0  0  0  0  0  0  0
   16.6457   -3.3428   -5.8368 C   0  0  0  0  0  0  0  0  0  0  0  0
   16.7872   -3.6155   -7.3201 C   0  0  0  0  0  0  0  0  0  0  0  0
   18.2400   -3.7479   -7.7134 C   0  0  0  0  0  0  0  0  0  0  0  0
   18.9600   -2.6616   -7.1965 O   0  0  0  0  0  0  0  0  0  0  0  0
  1  2  1  0
  2  3  1  0
  2  4  1  0
  4  5  1  0
  5  6  1  0
  6  7  1  0
  7  8  1  1
  7  9  1  0
  9 10  1  0
 11 10  1  1
 11 12  1  0
 12 13  1  1
 12 14  1  0
 14 15  1  0
 15 16  1  1
 15 17  1  0
 17 18  1  0
 18 19  1  0
 19 20  1  0
 19 21  1  6
 19 22  1  0
 22 23  1  0
 23 24  1  0
 24 25  1  0
 25 26  1  0
 26 27  1  0
 27 28  1  0
 28 29  1  0
 29 11  1  0
M  RAD  2   9   2  16   3
M  END
>  <docking_score>  (2) 
-3.3879999999999999

$$$$

     RDKit          3D

 29 29  0  0  0  0  0  0  0  0999 V2000
   13.1185   -5.3715   -6.9191 C   0  0  0  0  0  0  0  0  0  0  0  0
   14.5428   -5.2796   -6.4479 C   0  0  0  0  0  0  0  0  0  0  0  0
   15.4498   -4.7338   -7.5210 C   0  0  0  0  0  0  0  0  0  0  0  0
   14.6830   -4.4609   -5.1874 C   0  0  0  0  0  0  0  0  0  0  0  0
   14.0977   -3.0917   -5.3986 C   0  0  0  0  0  0  0  0  0  0  0  0
   14.9451   -2.0908   -4.6292 C   0  0  0  0  0  0  0  0  0  0  0  0
   16.1320   -1.6705   -5.4399 C   0  0  1  0  0  0  0  0  0  0  0  0
   15.7936   -1.3122   -6.8623 C   0  0  0  0  0  0  0  0  0  0  0  0
   16.9652   -0.6122   -4.7829 C   0  0  0  0  0  3  0  0  0  0  0  0
   18.2511   -1.2723   -4.3129 C   0  0  0  0  0  0  0  0  0  0  0  0
   18.2047   -2.7230   -4.7323 C   0  0  1  0  0  0  0  0  0  0  0  0
   19.2930   -3.0481   -5.7038 C   0  0  2  0  0  0  0  0  0  0  0  0
   20.2731   -1.9303   -5.9033 C   0  0  0  0  0  0  0  0  0  0  0  0
   18.7502   -3.5949   -7.0072 C   0  0  0  0  0  0  0  0  0  0  0  0
   19.9067   -4.1029   -7.8437 C   0  0  1  0  0  0  0  0  0  0  0  0
   21.1755   -4.1828   -7.0320 C   0  0  0  0  0  2  0  0  0  0  0  0
   19.6460   -5.4364   -8.4634 C   0  0  0  0  0  0  0  0  0  0  0  0
   19.4422   -6.5368   -7.4729 C   0  0  0  0  0  0  0  0  0  0  0  0
   20.4547   -7.6437   -7.5763 C   0  0  2  0  0  0  0  0  0  0  0  0
   21.2017   -7.5731   -8.7386 O   0  0  0  0  0  0  0  0  0  0  0  0
   19.6923   -8.9684   -7.5655 C   0  0  0  0  0  0  0  0  0  0  0  0
   21.3817   -7.6437   -6.3777 C   0  0  0  0  0  0  0  0  0  0  0  0
   20.6293   -7.6830   -5.2042 O   0  0  0  0  0  0  0  0  0  0  0  0
   20.1451   -6.4749   -4.9233 O   0  0  0  0  0  0  0  0  0  0  0  0
   20.9853   -5.8530   -4.0001 C   0  0  0  0  0  0  0  0  0  0  0  0
   20.2305   -5.3429   -2.7912 C   0  0  0  0  0  0  0  0  0  0  0  0
   18.7685   -5.7272   -2.8887 C   0  0  0  0  0  0  0  0  0  0  0  0
   18.0383   -4.8457   -3.8748 C   0  0  0  0  0  0  0  0  0  0  0  0
   18.3238   -3.5021   -3.5940 O   0  0  0  0  0  0  0  0  0  0  0  0
  1  2  1  0
  2  3  1  0
  2  4  1  0
  4  5  1  0
  5  6  1  0
  6  7  1  0
  7  8  1  6
  7  9  1  0
  9 10  1  0
 11 10  1  1
 11 12  1  0
 12 13  1  6
 12 14  1  0
 14 15  1  0
 15 16  1  1
 15 17  1  0
 17 18  1  0
 18 19  1  0
 19 20  1  0
 19 21  1  6
 19 22  1  0
 22 23  1  0
 23 24  1  0
 24 25  1  0
 25 26  1  0
 26 27  1  0
 27 28  1  0
 28 29  1  0
 29 11  1  0
M  RAD  2   9   2  16   3
M  END
>  <docking_score>  (3) 
-3.1579999999999999

$$$$
