
     RDKit          3D

 25 27  0  0  0  0  0  0  0  0999 V2000
    5.1602   10.6878    5.2580 C   0  0  0  0  0  0  0  0  0  0  0  0
    5.7337    9.6009    4.4239 C   0  0  1  0  0  0  0  0  0  0  0  0
    6.0190    8.3618    5.2363 C   0  0  0  0  0  0  0  0  0  0  0  0
    4.7291    7.5430    5.2943 C   0  0  2  0  0  0  0  0  0  0  0  0
    4.5389    6.8410    4.0957 O   0  0  0  0  0  0  0  0  0  0  0  0
    3.5964    8.5427    5.4060 C   0  0  2  0  0  0  0  0  0  0  0  0
    2.4692    8.0188    5.9914 O   0  0  0  0  0  0  0  0  0  0  0  0
    3.3483    9.1103    4.0281 C   0  0  1  0  0  0  0  0  0  0  0  0
    2.6937   10.3283    4.1096 O   0  0  0  0  0  0  0  0  0  0  0  0
    4.7041    9.2736    3.3551 C   0  0  1  0  0  0  0  0  0  0  0  0
    4.6965   10.3848    2.4242 N   0  0  0  0  0  0  0  0  0  0  0  0
    6.0900   10.7564    2.1956 C   0  0  0  0  0  3  0  0  0  0  0  0
    6.2412   12.1939    2.5448 C   0  0  2  0  0  0  0  0  0  0  0  0
    6.2578   13.0571    1.4785 O   0  0  0  0  0  0  0  0  0  0  0  0
    7.5353   13.4799    1.1281 C   0  0  0  0  0  0  0  0  0  0  0  0
    7.8332   14.7505    1.6022 O   0  0  0  0  0  0  0  0  0  0  0  0
    9.1375   14.7505    2.0897 C   0  0  0  0  0  3  0  0  0  0  0  0
    9.2654   15.3280    3.3290 O   0  0  0  0  0  0  0  0  0  0  0  0
    8.6775   14.4623    4.2803 C   0  0  1  0  0  0  0  0  0  0  0  0
    8.4490   15.1372    5.4805 O   0  0  0  0  0  0  0  0  0  0  0  0
    7.3881   13.9890    3.6999 C   0  0  2  0  0  0  0  0  0  0  0  0
    6.2625   14.4884    4.3201 O   0  0  0  0  0  0  0  0  0  0  0  0
    7.3315   12.4695    3.5516 C   0  0  1  0  0  0  0  0  0  0  0  0
    7.0721   11.9409    4.8128 O   0  0  0  0  0  0  0  0  0  0  0  0
    5.8649   11.7576    5.3851 N   0  0  0  0  0  0  0  0  0  0  0  0
  1  2  1  0
  2  3  1  1
  3  4  1  0
  4  5  1  6
  4  6  1  0
  6  7  1  6
  6  8  1  0
  8  9  1  1
  8 10  1  0
 10 11  1  6
 11 12  1  0
 13 12  1  6
 13 14  1  0
 14 15  1  0
 15 16  1  0
 16 17  1  0
 17 18  1  0
 18 19  1  0
 19 20  1  1
 19 21  1  0
 21 22  1  1
 21 23  1  0
 23 24  1  1
 24 25  1  0
  1 25  2  3
 10  2  1  0
 23 13  1  0
M  RAD  2  12   2  17   2
M  END
>  <docking_score>  (1) 
-6.2000000000000002

$$$$

     RDKit          3D

 25 27  0  0  0  0  0  0  0  0999 V2000
   17.0511   -3.4585   -5.8154 C   0  0  0  0  0  0  0  0  0  0  0  0
   16.0305   -3.8563   -4.8122 C   0  0  1  0  0  0  0  0  0  0  0  0
   14.6342   -3.5049   -5.2634 C   0  0  0  0  0  0  0  0  0  0  0  0
   14.1285   -4.6563   -6.1328 C   0  0  2  0  0  0  0  0  0  0  0  0
   13.7132   -5.7301   -5.3327 O   0  0  0  0  0  0  0  0  0  0  0  0
   15.3202   -5.1376   -6.9350 C   0  0  2  0  0  0  0  0  0  0  0  0
   14.9662   -5.7623   -8.1063 O   0  0  0  0  0  0  0  0  0  0  0  0
   16.1660   -5.9994   -6.0273 C   0  0  1  0  0  0  0  0  0  0  0  0
   17.4650   -6.0835   -6.5008 O   0  0  0  0  0  0  0  0  0  0  0  0
   16.1391   -5.3628   -4.6445 C   0  0  1  0  0  0  0  0  0  0  0  0
   17.3718   -5.6182   -3.9259 N   0  0  0  0  0  0  0  0  0  0  0  0
   17.4563   -4.6227   -2.8611 C   0  0  0  0  0  3  0  0  0  0  0  0
   18.7370   -3.8856   -3.0273 C   0  0  2  0  0  0  0  0  0  0  0  0
   19.7511   -4.2770   -2.1901 O   0  0  0  0  0  0  0  0  0  0  0  0
   19.9325   -3.4267   -1.1048 C   0  0  0  0  0  0  0  0  0  0  0  0
   20.9981   -2.5530   -1.2749 O   0  0  0  0  0  0  0  0  0  0  0  0
   20.6186   -1.2925   -0.8210 C   0  0  0  0  0  3  0  0  0  0  0  0
   20.9213   -0.2757   -1.6928 O   0  0  0  0  0  0  0  0  0  0  0  0
   20.0536   -0.3769   -2.8049 C   0  0  1  0  0  0  0  0  0  0  0  0
   20.5366    0.3808   -3.8728 O   0  0  0  0  0  0  0  0  0  0  0  0
   19.9930   -1.8189   -3.1799 C   0  0  2  0  0  0  0  0  0  0  0  0
   20.6127   -2.1278   -4.3723 O   0  0  0  0  0  0  0  0  0  0  0  0
   18.5766   -2.3870   -3.1088 C   0  0  1  0  0  0  0  0  0  0  0  0
   17.9027   -1.9598   -4.2493 O   0  0  0  0  0  0  0  0  0  0  0  0
   17.8953   -2.5540   -5.4599 N   0  0  0  0  0  0  0  0  0  0  0  0
  1  2  1  0
  2  3  1  6
  3  4  1  0
  4  5  1  1
  4  6  1  0
  6  7  1  6
  6  8  1  0
  8  9  1  6
  8 10  1  0
 10 11  1  6
 11 12  1  0
 13 12  1  1
 13 14  1  0
 14 15  1  0
 15 16  1  0
 16 17  1  0
 17 18  1  0
 18 19  1  0
 19 20  1  6
 19 21  1  0
 21 22  1  6
 21 23  1  0
 23 24  1  6
 24 25  1  0
  1 25  2  3
 10  2  1  0
 23 13  1  0
M  RAD  2  12   2  17   2
M  END
>  <docking_score>  (2) 
-5.8200000000000003

$$$$

     RDKit          3D

 25 27  0  0  0  0  0  0  0  0999 V2000
    5.7186    9.7481    3.2930 C   0  0  0  0  0  0  0  0  0  0  0  0
    4.3488   10.0680    3.7699 C   0  0  1  0  0  0  0  0  0  0  0  0
    3.2926    9.3619    2.9559 C   0  0  0  0  0  0  0  0  0  0  0  0
    3.1027    7.9695    3.5582 C   0  0  2  0  0  0  0  0  0  0  0  0
    2.3145    8.0385    4.7156 O   0  0  0  0  0  0  0  0  0  0  0  0
    4.4781    7.5012    3.9870 C   0  0  2  0  0  0  0  0  0  0  0  0
    4.5903    6.1330    4.0417 O   0  0  0  0  0  0  0  0  0  0  0  0
    4.8077    8.1830    5.2942 C   0  0  1  0  0  0  0  0  0  0  0  0
    6.1758    8.1960    5.5097 O   0  0  0  0  0  0  0  0  0  0  0  0
    4.2634    9.6027    5.2140 C   0  0  1  0  0  0  0  0  0  0  0  0
    5.0684   10.5175    5.9990 N   0  0  0  0  0  0  0  0  0  0  0  0
    4.7836   11.8625    5.5071 C   0  0  0  0  0  3  0  0  0  0  0  0
    6.0717   12.4769    5.0893 C   0  0  2  0  0  0  0  0  0  0  0  0
    6.6189   13.3581    5.9875 O   0  0  0  0  0  0  0  0  0  0  0  0
    6.4026   14.6914    5.6570 C   0  0  0  0  0  0  0  0  0  0  0  0
    7.5072   15.2872    5.0632 O   0  0  0  0  0  0  0  0  0  0  0  0
    7.0722   16.0750    4.0006 C   0  0  0  0  0  3  0  0  0  0  0  0
    7.7832   15.8831    2.8417 O   0  0  0  0  0  0  0  0  0  0  0  0
    7.4442   14.6118    2.3231 C   0  0  1  0  0  0  0  0  0  0  0  0
    8.3798   14.2070    1.3698 O   0  0  0  0  0  0  0  0  0  0  0  0
    7.4332   13.6617    3.4724 C   0  0  2  0  0  0  0  0  0  0  0  0
    8.4627   12.7445    3.4680 O   0  0  0  0  0  0  0  0  0  0  0  0
    6.0739   12.9934    3.6710 C   0  0  1  0  0  0  0  0  0  0  0  0
    5.9631   11.9902    2.7125 O   0  0  0  0  0  0  0  0  0  0  0  0
    6.4085   10.7210    2.8085 N   0  0  0  0  0  0  0  0  0  0  0  0
  1  2  1  0
  2  3  1  6
  3  4  1  0
  4  5  1  1
  4  6  1  0
  6  7  1  1
  6  8  1  0
  8  9  1  6
  8 10  1  0
 10 11  1  1
 11 12  1  0
 13 12  1  1
 13 14  1  0
 14 15  1  0
 15 16  1  0
 16 17  1  0
 17 18  1  0
 18 19  1  0
 19 20  1  6
 19 21  1  0
 21 22  1  6
 21 23  1  0
 23 24  1  6
 24 25  1  0
  1 25  2  3
 10  2  1  0
 23 13  1  0
M  RAD  2  12   2  17   2
M  END
>  <docking_score>  (3) 
-5.681

$$$$
