
     RDKit          3D

 38 41  0  0  0  0  0  0  0  0999 V2000
   16.7673   -4.8852   -6.5326 C   0  0  2  0  0  0  0  0  0  0  0  0
   15.8720   -3.6890   -6.2069 C   0  0  2  0  0  0  0  0  0  0  0  0
   14.4975   -4.1993   -6.6736 C   0  0  0  0  0  0  0  0  0  0  0  0
   14.4925   -5.6469   -7.0913 C   0  0  1  0  0  0  0  0  0  0  0  0
   13.2972   -5.8520   -7.7892 O   0  0  0  0  0  0  0  0  0  0  0  0
   15.4929   -5.9829   -8.0552 O   0  0  0  0  0  0  0  0  0  0  0  0
   16.2215   -4.9105   -7.9962 C   0  0  2  0  0  0  0  0  0  0  0  0
   17.3374   -4.4318   -8.7386 C   0  0  0  0  0  0  0  0  0  0  0  0
   17.5675   -3.0726   -8.0275 C   0  0  0  0  0  3  0  0  0  0  0  0
   16.4296   -2.6330   -7.1767 C   0  0  1  0  0  0  0  0  0  0  0  0
   15.2375   -2.1288   -7.9156 C   0  0  0  0  0  3  0  0  0  0  0  0
   14.4353   -1.2987   -7.0289 C   0  0  0  0  0  0  0  0  0  0  0  0
   14.8624   -0.6605   -5.9383 C   0  0  0  0  0  0  0  0  0  0  0  0
   14.1503    0.0916   -5.1892 O   0  0  0  0  0  0  0  0  0  0  0  0
   16.3474   -0.8418   -5.6500 C   0  0  0  0  0  3  0  0  0  0  0  0
   16.5211   -1.2048   -4.2931 O   0  0  0  0  0  0  0  0  0  0  0  0
   17.8264   -1.0515   -3.8910 C   0  0  0  0  0  0  0  0  0  0  0  0
   18.6010   -2.2626   -3.8920 O   0  0  0  0  0  0  0  0  0  0  0  0
   18.2228   -2.8466   -2.6570 C   0  0  2  0  0  0  0  0  0  0  0  0
   18.9242   -1.9685   -1.7108 O   0  0  0  0  0  0  0  0  0  0  0  0
   20.2187   -1.7983   -2.2546 C   0  0  0  0  0  3  0  0  0  0  0  0
   20.9534   -0.8739   -1.2763 C   0  0  0  0  0  3  0  0  0  0  0  0
   21.3823    0.1903   -2.1099 O   0  0  0  0  0  0  0  0  0  0  0  0
   18.9270   -4.2134   -2.5098 C   0  0  1  0  0  0  0  0  0  0  0  0
   18.1353   -5.0689   -1.7956 O   0  0  0  0  0  0  0  0  0  0  0  0
   17.1286   -4.2066   -1.2807 C   0  0  0  0  0  3  0  0  0  0  0  0
   15.9519   -4.9727   -0.8353 C   0  0  0  0  0  2  0  0  0  0  0  0
   19.1821   -4.8862   -3.8789 C   0  0  2  0  0  0  0  0  0  0  0  0
   18.9931   -3.8792   -4.8617 O   0  0  0  0  0  0  0  0  0  0  0  0
   20.2624   -3.7595   -5.4825 C   0  0  0  0  0  2  0  0  0  0  0  0
   18.1554   -6.0221   -4.0860 C   0  0  1  0  0  0  0  0  0  0  0  0
   16.7509   -5.6734   -4.2854 C   0  0  0  0  0  3  0  0  0  0  0  0
   16.3826   -6.0626   -5.7381 C   0  0  0  0  0  3  0  0  0  0  0  0
   18.6216   -7.0643   -5.0399 C   0  0  1  0  0  0  0  0  0  0  0  0
   19.9517   -6.6982   -5.6934 C   0  0  0  0  0  3  0  0  0  0  0  0
   19.1225   -8.2352   -4.5860 O   0  0  0  0  0  0  0  0  0  0  0  0
   20.0390   -8.2101   -5.6504 C   0  0  2  0  0  0  0  0  0  0  0  0
   21.3738   -8.7585   -5.2703 C   0  0  0  0  0  2  0  0  0  0  0  0
  1  2  1  0
  2  3  1  6
  3  4  1  0
  4  5  1  6
  4  6  1  0
  6  7  1  0
  7  8  1  6
  8  9  1  0
 10  9  1  6
 10 11  1  0
 11 12  1  0
 12 13  2  3
 13 14  1  0
 13 15  1  0
 15 16  1  0
 16 17  1  0
 17 18  1  0
 18 19  1  0
 19 20  1  1
 20 21  1  0
 21 22  1  0
 22 23  1  0
 19 24  1  0
 24 25  1  1
 25 26  1  0
 26 27  1  0
 24 28  1  0
 28 29  1  6
 29 30  1  0
 28 31  1  0
 31 32  1  6
 32 33  1  0
 31 34  1  0
 34 35  1  1
 34 36  1  0
 36 37  1  0
 37 38  1  1
  7  1  1  0
  1 33  1  1
 10  2  1  0
 37 35  1  0
M  RAD  8   9   2  11   2  15   2  21   2  22   2  26   2  27   3  30   3
M  RAD  4  32   2  33   2  35   2  38   3
M  END
>  <docking_score>  (1) 
-4.0410000000000004

$$$$

     RDKit          3D

 38 41  0  0  0  0  0  0  0  0999 V2000
    4.6226   10.4454    5.6740 C   0  0  2  0  0  0  0  0  0  0  0  0
    4.7233    9.8537    7.0806 C   0  0  2  0  0  0  0  0  0  0  0  0
    5.3727    8.4888    6.7927 C   0  0  0  0  0  0  0  0  0  0  0  0
    5.8043    8.3071    5.3607 C   0  0  1  0  0  0  0  0  0  0  0  0
    6.0484    6.9396    5.1927 O   0  0  0  0  0  0  0  0  0  0  0  0
    4.7797    8.5742    4.4006 O   0  0  0  0  0  0  0  0  0  0  0  0
    3.9071    9.1521    5.1681 C   0  0  2  0  0  0  0  0  0  0  0  0
    2.5711    9.6051    4.9792 C   0  0  0  0  0  0  0  0  0  0  0  0
    2.2688   10.1443    6.4019 C   0  0  0  0  0  3  0  0  0  0  0  0
    3.2357    9.6950    7.4389 C   0  0  1  0  0  0  0  0  0  0  0  0
    3.0977    8.2743    7.8676 C   0  0  0  0  0  3  0  0  0  0  0  0
    3.7199    8.1009    9.1720 C   0  0  0  0  0  0  0  0  0  0  0  0
    3.9351    9.0534   10.0808 C   0  0  0  0  0  0  0  0  0  0  0  0
    4.4535    8.8766   11.2357 O   0  0  0  0  0  0  0  0  0  0  0  0
    3.4473   10.4354    9.6644 C   0  0  0  0  0  3  0  0  0  0  0  0
    4.4764   11.3819    9.8839 O   0  0  0  0  0  0  0  0  0  0  0  0
    3.9956   12.6691    9.8524 C   0  0  0  0  0  0  0  0  0  0  0  0
    4.1904   13.3522    8.6026 O   0  0  0  0  0  0  0  0  0  0  0  0
    5.5336   13.7896    8.7205 C   0  0  2  0  0  0  0  0  0  0  0  0
    5.3860   14.8700    9.7050 O   0  0  0  0  0  0  0  0  0  0  0  0
    4.0143   15.2134    9.6741 C   0  0  0  0  0  3  0  0  0  0  0  0
    3.7358   15.9001   11.0165 C   0  0  0  0  0  3  0  0  0  0  0  0
    2.3264   16.0575   11.0036 O   0  0  0  0  0  0  0  0  0  0  0  0
    5.9451   14.5088    7.4169 C   0  0  1  0  0  0  0  0  0  0  0  0
    7.2788   14.3197    7.1837 O   0  0  0  0  0  0  0  0  0  0  0  0
    7.8526   15.5349    7.6487 C   0  0  0  0  0  3  0  0  0  0  0  0
    9.3069   15.5573    7.4152 C   0  0  0  0  0  2  0  0  0  0  0  0
    5.1971   13.9501    6.1838 C   0  0  2  0  0  0  0  0  0  0  0  0
    4.1156   13.1797    6.6863 O   0  0  0  0  0  0  0  0  0  0  0  0
    2.9824   13.6861    6.0005 C   0  0  0  0  0  2  0  0  0  0  0  0
    6.1547   13.0470    5.3748 C   0  0  1  0  0  0  0  0  0  0  0  0
    6.5787   11.7745    5.9536 C   0  0  0  0  0  3  0  0  0  0  0  0
    5.9585   10.6481    5.0911 C   0  0  0  0  0  3  0  0  0  0  0  0
    5.7670   12.9179    3.9443 C   0  0  1  0  0  0  0  0  0  0  0  0
    5.6194   14.2740    3.2594 C   0  0  0  0  0  3  0  0  0  0  0  0
    6.6681   12.5074    3.0236 O   0  0  0  0  0  0  0  0  0  0  0  0
    6.0836   13.4014    2.1111 C   0  0  2  0  0  0  0  0  0  0  0  0
    7.0864   14.0292    1.2016 C   0  0  0  0  0  2  0  0  0  0  0  0
  1  2  1  0
  2  3  1  6
  3  4  1  0
  4  5  1  1
  4  6  1  0
  6  7  1  0
  7  8  1  6
  8  9  1  0
 10  9  1  6
 10 11  1  0
 11 12  1  0
 12 13  2  3
 13 14  1  0
 13 15  1  0
 15 16  1  0
 16 17  1  0
 17 18  1  0
 18 19  1  0
 19 20  1  1
 20 21  1  0
 21 22  1  0
 22 23  1  0
 19 24  1  0
 24 25  1  6
 25 26  1  0
 26 27  1  0
 24 28  1  0
 28 29  1  1
 29 30  1  0
 28 31  1  0
 31 32  1  1
 32 33  1  0
 31 34  1  0
 34 35  1  6
 34 36  1  0
 36 37  1  0
 37 38  1  6
  7  1  1  0
  1 33  1  6
 10  2  1  0
 37 35  1  0
M  RAD  8   9   2  11   2  15   2  21   2  22   2  26   2  27   3  30   3
M  RAD  4  32   2  33   2  35   2  38   3
M  END
>  <docking_score>  (2) 
-2.5299999999999998

$$$$
