
     RDKit          3D

 78 88  0  0  0  0  0  0  0  0999 V2000
   14.4361    5.0009   12.6263 N   0  0  0  0  0  0  0  0  0  0  0  0
   15.1923    3.7738   12.2110 C   0  0  0  0  0  0  0  0  0  0  0  0
   16.3276    3.2717   13.0530 N   0  0  0  0  0  0  0  0  0  0  0  0
   17.0838    2.0446   12.6378 C   0  0  0  0  0  0  0  0  0  0  0  0
   18.2191    1.5425   13.4799 Cl  0  0  0  0  0  0  0  0  0  0  0  0
   16.7048    1.3197   11.3805 N   0  0  0  0  0  0  0  0  0  0  0  0
   15.5695    1.8219   10.5384 C   0  0  0  0  0  0  0  0  0  0  0  0
   14.8133    3.0489   10.9537 C   0  0  0  0  0  0  0  0  0  0  0  0
   13.7482    3.3058    9.9293 N   0  0  0  0  0  0  0  0  0  0  0  0
   13.8461    2.2374    8.8809 N   0  0  0  0  0  0  0  0  0  0  0  0
   14.9717    1.3204    9.2574 C   0  0  0  0  0  0  0  0  0  0  0  0
   15.4208    0.1136    8.4879 C   0  0  0  0  0  3  0  0  0  0  0  0
   15.6152    0.2005    7.0031 O   0  0  0  0  0  0  0  0  0  0  0  0
   14.9071   -0.7619    6.0964 C   0  0  0  0  0  0  0  0  0  0  0  0
   13.6284   -1.4838    6.4027 C   0  0  0  0  0  0  0  0  0  0  0  0
   13.2843   -2.3395    5.2198 S   0  0  0  0  0  0  0  0  0  0  0  0
   12.0848   -3.2316    5.0960 C   0  0  0  0  0  0  0  0  0  0  0  0
   10.7366   -2.7404    5.5330 C   0  0  0  0  0  0  0  0  0  0  0  0
    9.3912   -2.1680    5.1978 C   0  0  0  0  0  0  0  0  0  0  0  0
    9.7467   -2.4620    6.6251 C   0  0  0  0  0  0  0  0  0  0  0  0
    9.3804   -2.4711    8.0797 C   0  0  0  0  0  0  0  0  0  0  0  0
    9.3813   -3.7610    8.8453 O   0  0  0  0  0  0  0  0  0  0  0  0
    9.0134   -1.1902    8.7687 O   0  0  0  0  0  0  0  0  0  0  0  0
   15.3533   -1.1715    4.7241 C   0  0  0  0  0  0  0  0  0  0  0  0
   16.5860   -0.6905    4.0176 O   0  0  0  0  0  0  0  0  0  0  0  0
   14.3504   -2.1466    4.1823 C   0  0  0  0  0  0  0  0  0  0  0  0
   13.3474   -3.1215    3.6406 C   0  0  0  0  0  3  0  0  0  0  0  0
   13.7936   -3.5311    2.2683 N   0  0  0  0  0  0  0  0  0  0  0  0
   15.0724   -2.8093    1.9619 C   0  0  0  0  0  0  0  0  0  0  0  0
   15.4164   -1.9536    3.1449 S   0  0  0  0  0  0  0  0  0  0  0  0
   15.8627   -2.3631    1.7726 N   0  0  0  0  0  0  0  0  0  0  0  0
   14.8597   -3.3382    1.2308 N   0  0  0  0  0  0  0  0  0  0  0  0
   14.9134   -4.0034   -0.1125 C   0  0  0  0  0  3  0  0  0  0  0  0
   15.3142   -3.2153   -1.3242 S   0  0  0  0  0  0  0  0  0  0  0  0
   15.9461   -3.9086   -2.4947 N   0  0  0  0  0  0  0  0  0  0  0  0
   17.4204   -4.1613   -2.3831 C   0  0  0  0  0  0  0  0  0  0  0  0
   18.3330   -4.8253   -3.3711 C   0  0  0  0  0  3  0  0  0  0  0  0
   17.9965   -5.4008   -4.7149 N   0  0  0  0  0  0  0  0  0  0  0  0
   16.4966   -5.3321   -5.2207 C   0  0  0  0  0  0  0  0  0  0  0  0
   16.4391   -4.6735   -3.8742 N   0  0  0  0  0  0  0  0  0  0  0  0
   15.0201   -4.2577   -3.6219 C   0  0  0  0  0  0  0  0  0  0  0  0
   14.2007   -4.6592   -4.8124 O   0  0  0  0  0  0  0  0  0  0  0  0
   15.1133   -5.3233   -5.8005 C   0  0  0  0  0  0  0  0  0  0  0  0
   14.7127   -5.8806   -7.1343 C   0  0  0  0  0  3  0  0  0  0  0  0
   13.2855   -5.7900   -7.5870 C   0  0  0  0  0  0  0  0  0  0  0  0
   18.0679   -3.6871   -1.1158 N   0  0  0  0  0  0  0  0  0  0  0  0
   18.9072   -2.4439   -1.1220 S   0  0  0  0  0  0  0  0  0  0  0  0
   19.8082   -2.1415    0.0386 N   0  0  0  0  0  0  0  0  0  0  0  0
   18.8455   -1.5032   -2.2886 N   0  0  0  0  0  0  0  0  0  0  0  0
   19.9485   -0.5114   -2.5116 C   0  0  0  0  0  0  0  0  0  0  0  0
   21.3521   -0.8460   -2.1020 N   0  0  0  0  0  0  0  0  0  0  0  0
   17.6807   -1.5542   -3.2325 C   0  0  0  0  0  0  0  0  0  0  0  0
   16.4277   -0.7913   -2.9193 N   0  0  0  0  0  0  0  0  0  0  0  0
   15.2630   -0.8423   -3.8631 C   0  0  0  0  0  0  0  0  0  0  0  0
   13.9471   -0.2431   -3.4637 N   0  0  0  0  0  0  0  0  0  0  0  0
   12.7824   -0.2941   -4.4074 S   0  0  0  0  0  0  0  0  0  0  0  0
   11.5428   -1.0491   -4.0289 C   0  0  0  0  0  3  0  0  0  0  0  0
   10.2155   -0.3506   -4.0100 C   0  0  0  0  0  0  0  0  0  0  0  0
    8.9526   -1.1439   -3.8500 O   0  0  0  0  0  0  0  0  0  0  0  0
    8.0516   -1.3655   -5.0286 S   0  0  2  0  0  0  0  0  0  0  0  0
    7.1703   -1.6284   -3.8435 N   0  0  0  0  0  0  0  0  0  0  0  0
    9.1845   -1.0393   -5.9560 C   0  0  0  0  0  3  0  0  0  0  0  0
    8.2834   -1.2609   -7.1346 C   0  0  0  0  0  0  0  0  0  0  0  0
    7.1506   -1.5871   -6.2071 C   0  0  0  0  0  0  0  0  0  0  0  0
    5.7123   -1.9744   -6.3847 N   0  0  0  0  0  0  0  0  0  0  0  0
    4.5246   -1.0934   -6.1335 N   0  0  0  0  0  0  0  0  0  0  0  0
    3.2875   -1.8851   -6.4383 O   0  0  0  0  0  0  0  0  0  0  0  0
    3.7108   -3.2555   -6.8778 C   0  0  0  0  0  0  0  0  0  0  0  0
    5.2094   -3.3106   -6.8447 C   0  0  0  0  0  0  0  0  0  0  0  0
    6.6958   -3.0796   -6.7172 C   0  0  0  0  0  0  0  0  0  0  0  0
    7.0484   -1.6992   -6.2477 C   0  0  0  0  0  0  0  0  0  0  0  0
    5.9628   -0.7061   -5.9559 C   0  0  0  0  0  0  0  0  0  0  0  0
    6.3154    0.6741   -5.4865 C   0  0  0  0  0  0  0  0  0  0  0  0
    5.8571    1.8712   -6.2657 N   0  0  0  0  0  0  0  0  0  0  0  0
    4.9739    2.8952   -5.6166 C   0  0  0  0  0  3  0  0  0  0  0  0
    5.2673    3.3628   -4.2219 C   0  0  0  0  0  2  0  0  0  0  0  0
    7.7815   -4.0726   -7.0090 N   0  0  0  0  0  0  0  0  0  0  0  0
    7.5159   -5.2245   -7.9324 C   0  0  0  0  0  2  0  0  0  0  0  0
  1  2  1  0
  2  3  2  0
  3  4  1  0
  4  5  1  0
  4  6  2  0
  6  7  1  0
  7  8  2  0
  8  9  1  0
  9 10  1  0
 10 11  2  0
 11 12  1  0
 12 13  1  0
 14 13  1  0
 14 15  1  0
 15 16  1  0
 16 17  1  0
 17 18  1  0
 18 19  1  0
 19 20  1  0
 20 21  1  0
 21 22  1  0
 21 23  1  0
 14 24  1  0
 24 25  1  0
 24 26  1  0
 26 27  1  0
 27 28  1  0
 28 29  1  0
 29 30  1  0
 30 31  1  0
 31 32  1  0
 32 33  1  0
 33 34  1  0
 34 35  1  0
 35 36  1  0
 36 37  1  0
 37 38  1  0
 38 39  1  0
 39 40  1  0
 40 41  2  0
 41 42  1  0
 42 43  1  0
 43 44  1  0
 44 45  1  0
 36 46  1  0
 46 47  1  0
 47 48  1  0
 47 49  1  0
 49 50  1  0
 50 51  1  0
 49 52  1  0
 52 53  2  3
 53 54  1  0
 54 55  2  3
 55 56  1  0
 56 57  1  0
 57 58  1  0
 58 59  1  0
 59 60  1  0
 60 61  1  0
 60 62  1  0
 62 63  1  0
 63 64  2  0
 64 65  1  0
 65 66  1  0
 66 67  1  0
 67 68  1  0
 68 69  2  0
 69 70  1  0
 70 71  1  0
 71 72  2  0
 72 73  1  0
 73 74  1  0
 74 75  1  0
 75 76  1  0
 70 77  1  0
 77 78  1  0
  8  2  1  0
 11  7  1  0
 26 16  1  0
 20 18  1  0
 30 26  1  0
 32 28  1  0
 41 35  1  0
 43 39  1  0
 64 60  1  0
 69 65  1  0
 72 66  1  0
M  RAD  8  12   2  27   2  33   2  37   2  44   2  57   2  62   2  75   2
M  RAD  2  76   3  78   3
M  END
>  <docking_score>  (1) 
85.921000000000006

$$$$
