
     RDKit          3D

 20 20  0  0  0  0  0  0  0  0999 V2000
    5.2332   -0.4784   -7.9742 C   0  0  0  0  0  0  0  0  0  0  0  0
    6.5457   -0.2378   -8.4063 O   0  0  0  0  0  0  0  0  0  0  0  0
    7.2134    0.4686   -7.3837 C   0  0  0  0  0  3  0  0  0  0  0  0
    6.3757    0.6046   -6.2733 O   0  0  0  0  0  0  0  0  0  0  0  0
    6.4936   -0.4782   -5.4198 C   0  0  2  0  0  0  0  0  0  0  0  0
    7.9152   -0.4305   -4.8556 C   0  0  0  0  0  0  0  0  0  0  0  0
    6.3302   -1.7794   -6.1323 C   0  0  0  0  0  3  0  0  0  0  0  0
    5.2467   -1.7749   -7.1877 C   0  0  2  0  0  0  0  0  0  0  0  0
    5.5296   -2.8642   -8.1018 N   0  0  0  0  0  0  0  0  0  0  0  0
    5.1378   -4.1194   -7.5385 C   0  0  0  0  0  3  0  0  0  0  0  0
    4.4880   -4.9840   -8.5872 C   0  0  0  0  0  0  0  0  0  0  0  0
    5.0535   -6.3917   -8.5524 C   0  0  0  0  0  3  0  0  0  0  0  0
    6.4535   -6.2726   -7.9724 C   0  0  0  0  0  3  0  0  0  0  0  0
    6.9897   -7.6781   -7.8094 C   0  0  0  0  0  0  0  0  0  0  0  0
    5.7890   -8.5778   -7.4904 C   0  0  0  0  0  0  0  0  0  0  0  0
    6.2453   -9.4649   -6.3396 C   0  0  0  0  0  3  0  0  0  0  0  0
    5.6716  -10.8340   -6.5492 C   0  0  0  0  0  0  0  0  0  0  0  0
    4.9716  -11.3017   -5.2916 C   0  0  0  0  0  0  0  0  0  0  0  0
    3.6940  -12.0322   -5.6107 C   0  0  0  0  0  3  0  0  0  0  0  0
    4.0061  -13.2197   -6.2592 O   0  0  0  0  0  1  0  0  0  0  0  0
  1  2  1  0
  2  3  1  0
  3  4  1  0
  4  5  1  0
  5  6  1  6
  5  7  1  0
  7  8  1  0
  8  9  1  6
  9 10  1  0
 10 11  1  0
 11 12  1  0
 12 13  1  0
 13 14  1  0
 14 15  1  0
 15 16  1  0
 16 17  1  0
 17 18  1  0
 18 19  1  0
 19 20  1  0
  8  1  1  0
M  CHG  1  20  -1
M  RAD  7   3   2   7   2  10   2  12   2  13   2  16   2  19   2
M  END
>  <docking_score>  (1) 
-4.3109999999999999

$$$$

     RDKit          3D

 20 20  0  0  0  0  0  0  0  0999 V2000
   17.2546   -6.4934   -4.8790 C   0  0  0  0  0  0  0  0  0  0  0  0
   17.7931   -5.4457   -5.6404 O   0  0  0  0  0  0  0  0  0  0  0  0
   17.1404   -5.4422   -6.8912 C   0  0  0  0  0  3  0  0  0  0  0  0
   16.1351   -6.4129   -6.9068 O   0  0  0  0  0  0  0  0  0  0  0  0
   14.9392   -5.9050   -6.4305 C   0  0  2  0  0  0  0  0  0  0  0  0
   14.4876   -4.8465   -7.4389 C   0  0  0  0  0  0  0  0  0  0  0  0
   15.0978   -5.2343   -5.1068 C   0  0  0  0  0  3  0  0  0  0  0  0
   16.0356   -5.9490   -4.1595 C   0  0  2  0  0  0  0  0  0  0  0  0
   16.4772   -4.9799   -3.1757 N   0  0  0  0  0  0  0  0  0  0  0  0
   17.7147   -5.3820   -2.5813 C   0  0  0  0  0  3  0  0  0  0  0  0
   18.4327   -4.1880   -2.0080 C   0  0  0  0  0  0  0  0  0  0  0  0
   19.4180   -3.6177   -3.0114 C   0  0  0  0  0  3  0  0  0  0  0  0
   18.8523   -2.2755   -3.4461 C   0  0  0  0  0  3  0  0  0  0  0  0
   18.7998   -2.2825   -4.9583 C   0  0  0  0  0  0  0  0  0  0  0  0
   17.3493   -1.9784   -5.3541 C   0  0  0  0  0  0  0  0  0  0  0  0
   16.6528   -1.5835   -4.0585 C   0  0  0  0  0  3  0  0  0  0  0  0
   15.1734   -1.7062   -4.2671 C   0  0  0  0  0  0  0  0  0  0  0  0
   14.7954   -1.1721   -5.6317 C   0  0  0  0  0  0  0  0  0  0  0  0
   13.8759    0.0156   -5.5238 C   0  0  0  0  0  3  0  0  0  0  0  0
   13.6752    0.3072   -4.1811 O   0  0  0  0  0  1  0  0  0  0  0  0
  1  2  1  0
  2  3  1  0
  3  4  1  0
  4  5  1  0
  5  6  1  6
  5  7  1  0
  7  8  1  0
  8  9  1  1
  9 10  1  0
 10 11  1  0
 11 12  1  0
 12 13  1  0
 13 14  1  0
 14 15  1  0
 15 16  1  0
 16 17  1  0
 17 18  1  0
 18 19  1  0
 19 20  1  0
  8  1  1  0
M  CHG  1  20  -1
M  RAD  7   3   2   7   2  10   2  12   2  13   2  16   2  19   2
M  END
>  <docking_score>  (2) 
-4.0279999999999996

$$$$

     RDKit          3D

 20 20  0  0  0  0  0  0  0  0999 V2000
   15.8091   -2.1058   -6.9711 C   0  0  0  0  0  0  0  0  0  0  0  0
   16.6903   -1.4748   -6.0807 O   0  0  0  0  0  0  0  0  0  0  0  0
   16.0573   -0.3082   -5.6021 C   0  0  0  0  0  3  0  0  0  0  0  0
   14.7553   -0.2324   -6.1043 O   0  0  0  0  0  0  0  0  0  0  0  0
   13.8607   -0.8950   -5.2823 C   0  0  2  0  0  0  0  0  0  0  0  0
   13.8265   -0.1168   -3.9653 C   0  0  0  0  0  0  0  0  0  0  0  0
   14.3001   -2.2882   -4.9765 C   0  0  0  0  0  3  0  0  0  0  0  0
   14.9137   -3.0155   -6.1522 C   0  0  2  0  0  0  0  0  0  0  0  0
   15.7203   -4.0957   -5.6187 N   0  0  0  0  0  0  0  0  0  0  0  0
   15.5350   -4.2229   -4.2060 C   0  0  0  0  0  3  0  0  0  0  0  0
   16.8489   -4.0552   -3.4882 C   0  0  0  0  0  0  0  0  0  0  0  0
   17.0618   -5.1727   -2.4840 C   0  0  0  0  0  3  0  0  0  0  0  0
   18.3838   -5.8270   -2.8509 C   0  0  0  0  0  3  0  0  0  0  0  0
   19.3380   -4.7181   -3.2374 C   0  0  0  0  0  0  0  0  0  0  0  0
   20.6484   -4.9761   -2.4828 C   0  0  0  0  0  0  0  0  0  0  0  0
   21.0041   -3.6479   -1.8280 C   0  0  0  0  0  3  0  0  0  0  0  0
   20.1194   -2.5876   -2.4115 C   0  0  0  0  0  0  0  0  0  0  0  0
   20.9057   -1.3112   -2.6184 C   0  0  0  0  0  0  0  0  0  0  0  0
   20.6045   -0.2979   -1.5460 C   0  0  0  0  0  3  0  0  0  0  0  0
   21.1527    0.9231   -1.9158 O   0  0  0  0  0  1  0  0  0  0  0  0
  1  2  1  0
  2  3  1  0
  3  4  1  0
  4  5  1  0
  5  6  1  1
  5  7  1  0
  7  8  1  0
  8  9  1  1
  9 10  1  0
 10 11  1  0
 11 12  1  0
 12 13  1  0
 13 14  1  0
 14 15  1  0
 15 16  1  0
 16 17  1  0
 17 18  1  0
 18 19  1  0
 19 20  1  0
  8  1  1  0
M  CHG  1  20  -1
M  RAD  7   3   2   7   2  10   2  12   2  13   2  16   2  19   2
M  END
>  <docking_score>  (3) 
-3.8199999999999998

$$$$
