
     RDKit          3D

 55 58  0  0  0  0  0  0  0  0999 V2000
    7.9086   13.1346   10.9968 C   0  0  2  0  0  0  0  0  0  0  0  0
    7.7783   11.6735   11.1903 C   0  0  1  0  0  0  0  0  0  0  0  0
    9.0778   10.9242   11.2427 C   0  0  0  0  0  0  0  0  0  0  0  0
    6.9764   11.4147   12.4490 C   0  0  0  0  0  0  0  0  0  0  0  0
    5.6202   10.8304   12.1427 C   0  0  0  0  0  0  0  0  0  0  0  0
    4.5296   11.8829   12.1190 C   0  0  0  0  0  0  0  0  0  0  0  0
    4.1660   12.1490   10.6976 C   0  0  1  0  0  0  0  0  0  0  0  0
    4.3130   10.8804    9.9039 C   0  0  0  0  0  0  0  0  0  0  0  0
    2.7748   12.6871   10.5138 C   0  0  0  0  0  3  0  0  0  0  0  0
    2.7069   13.2653    9.0944 C   0  0  0  0  0  0  0  0  0  0  0  0
    4.0555   13.8143    8.6944 C   0  0  0  0  0  0  0  0  0  0  0  0
    4.3449   13.6774    7.2342 C   0  0  1  0  0  0  0  0  0  0  0  0
    5.5432   14.5851    6.9290 C   0  0  0  0  0  0  0  0  0  0  0  0
    4.7369   12.2915    6.8248 C   0  0  0  0  0  0  0  0  0  0  0  0
    3.6573   11.5273    6.1352 C   0  0  1  0  0  0  0  0  0  0  0  0
    2.2824   11.9407    6.5489 C   0  0  0  0  0  0  0  0  0  0  0  0
    3.7898   11.5645    4.6192 C   0  0  0  0  0  0  0  0  0  0  0  0
    2.8196   12.5177    4.0247 C   0  0  0  0  0  0  0  0  0  0  0  0
    3.1872   13.5151    3.2502 C   0  0  0  0  0  0  0  0  0  0  0  0
    2.2588   14.3851    2.7123 O   0  0  0  0  0  0  0  0  0  0  0  0
    4.6268   13.7088    2.9489 C   0  0  2  0  0  0  0  0  0  0  0  0
    5.3098   12.3966    2.6247 C   0  0  0  0  0  0  0  0  0  0  0  0
    5.2927   14.3672    3.9825 O   0  0  0  0  0  0  0  0  0  0  0  0
    6.3723   13.2525    4.7291 S   0  0  0  0  0  0  0  0  0  0  0  0
    6.7098   13.8249    6.3984 C   0  0  2  0  0  0  0  0  0  0  0  0
    7.2320   12.7629    7.3019 C   0  0  0  0  0  0  0  0  0  0  0  0
    6.8443   12.9210    8.7367 C   0  0  0  0  0  0  0  0  0  0  0  0
    7.8569   13.6026    9.5832 C   0  0  1  0  0  0  0  0  0  0  0  0
    7.7124   15.1111    9.5998 C   0  0  0  0  0  0  0  0  0  0  0  0
    6.8695   15.4358   10.8412 C   0  0  0  0  0  0  0  0  0  0  0  0
    7.8527   15.9419   11.8824 C   0  0  0  0  0  3  0  0  0  0  0  0
    8.5348   14.8334   12.6171 C   0  0  0  0  0  0  0  0  0  0  0  0
    9.0810   13.7593   11.7068 C   0  0  2  0  0  0  0  0  0  0  0  0
    9.9575   14.4754   10.6781 C   0  0  0  0  0  2  0  0  0  0  0  0
    9.8838   12.7812   12.4944 C   0  0  0  0  0  0  0  0  0  0  0  0
   11.2781   12.7071   11.9220 C   0  0  0  0  0  0  0  0  0  0  0  0
   11.8637   11.4964   12.2746 O   0  0  0  0  0  0  0  0  0  0  0  0
   13.2194   11.7210   12.5432 C   0  0  1  0  0  0  0  0  0  0  0  0
   13.4388   13.0920   13.1101 C   0  0  0  0  0  0  0  0  0  0  0  0
   12.8759   14.1383   12.1904 C   0  0  0  0  0  0  0  0  0  0  0  0
   12.3816   15.3521   12.9415 C   0  0  2  0  0  0  0  0  0  0  0  0
   13.4245   15.7469   13.8093 O   0  0  0  0  0  0  0  0  0  0  0  0
   11.1532   15.0040   13.7739 C   0  0  0  0  0  0  0  0  0  0  0  0
   10.9363   16.0623   14.8063 C   0  0  0  0  0  3  0  0  0  0  0  0
   12.0734   16.0731   15.7941 C   0  0  0  0  0  0  0  0  0  0  0  0
   11.6851   15.2317   17.0048 C   0  0  0  0  0  3  0  0  0  0  0  0
   12.8293   15.1453   17.9822 C   0  0  0  0  0  3  0  0  0  0  0  0
   14.1002   14.6593   17.3279 C   0  0  0  0  0  3  0  0  0  0  0  0
   14.4855   13.3133   17.8734 C   0  0  0  0  0  3  0  0  0  0  0  0
   14.0001   12.2214   16.9196 C   0  0  1  0  0  0  0  0  0  0  0  0
   13.4102   11.0731   17.6693 C   0  0  0  0  0  0  0  0  0  0  0  0
   12.9615   12.7941   15.9638 C   0  0  0  0  0  0  0  0  0  0  0  0
   12.2490   11.6520   15.2733 C   0  0  0  0  0  3  0  0  0  0  0  0
   13.2465   10.6822   14.7896 C   0  0  0  0  0  0  0  0  0  0  0  0
   13.7119   10.6921   13.5322 C   0  0  0  0  0  0  0  0  0  0  0  0
  1  2  1  6
  2  3  1  1
  2  4  1  0
  4  5  1  0
  5  6  1  0
  6  7  1  0
  7  8  1  6
  7  9  1  0
  9 10  1  0
 10 11  1  0
 12 11  1  1
 12 13  1  0
 12 14  1  0
 14 15  1  0
 15 16  1  6
 15 17  1  0
 17 18  1  0
 18 19  2  3
 19 20  1  0
 19 21  1  0
 21 22  1  1
 21 23  1  0
 23 24  1  0
 24 25  1  0
 25 26  1  1
 26 27  1  0
 28 27  1  1
 28 29  1  0
 29 30  1  0
 30 31  1  0
 31 32  1  0
 32 33  1  0
 33 34  1  6
 33 35  1  0
 35 36  1  0
 36 37  1  0
 38 37  1  1
 38 39  1  0
 39 40  1  0
 40 41  1  0
 41 42  1  1
 41 43  1  0
 43 44  1  0
 44 45  1  0
 45 46  1  0
 46 47  1  0
 47 48  1  0
 48 49  1  0
 49 50  1  0
 50 51  1  1
 50 52  1  0
 52 53  1  0
 53 54  1  0
 54 55  2  3
 28  1  1  0
 33  1  1  0
 25 13  1  0
 55 38  1  0
M  RAD  8   9   2  31   2  34   3  44   2  46   2  47   2  48   2  49   2
M  RAD  1  53   2
M  END
>  <docking_score>  (1) 
24.521999999999998

$$$$
