
     RDKit          3D

 11 11  0  0  0  0  0  0  0  0999 V2000
   16.2924   -4.4971   -2.0959 O   0  0  0  0  0  0  0  0  0  0  0  0
   16.6178   -4.2414   -3.4445 C   0  0  0  0  0  0  0  0  0  0  0  0
   15.5230   -3.4509   -4.1154 C   0  0  2  0  0  0  0  0  0  0  0  0
   15.1030   -4.0551   -5.2896 N   0  0  0  0  0  0  0  0  0  0  0  0
   15.0651   -3.3588   -6.4914 C   0  0  0  0  0  0  0  0  0  0  0  0
   15.3612   -1.9178   -6.4913 C   0  0  2  0  0  0  0  0  0  0  0  0
   16.7236   -1.6992   -6.7047 O   0  0  0  0  0  0  0  0  0  0  0  0
   15.0155   -1.2572   -5.1734 C   0  0  1  0  0  0  0  0  0  0  0  0
   13.6471   -1.2643   -4.9679 O   0  0  0  0  0  0  0  0  0  0  0  0
   15.7648   -1.9956   -4.1058 C   0  0  1  0  0  0  0  0  0  0  0  0
   15.4471   -1.4509   -2.8521 O   0  0  0  0  0  0  0  0  0  0  0  0
  1  2  1  0
  3  2  1  6
  3  4  1  0
  4  5  1  0
  5  6  1  0
  6  7  1  1
  6  8  1  0
  8  9  1  1
  8 10  1  0
 10 11  1  1
 10  3  1  0
M  END
>  <docking_score>  (1) 
-3.4449999999999998

$$$$

     RDKit          3D

 11 11  0  0  0  0  0  0  0  0999 V2000
   14.2533   -2.8010   -4.9461 O   0  0  0  0  0  0  0  0  0  0  0  0
   15.2967   -2.2691   -4.1597 C   0  0  0  0  0  0  0  0  0  0  0  0
   16.4294   -3.2571   -4.0398 C   0  0  2  0  0  0  0  0  0  0  0  0
   16.7669   -3.7987   -5.2699 N   0  0  0  0  0  0  0  0  0  0  0  0
   16.8235   -5.1729   -5.4675 C   0  0  0  0  0  0  0  0  0  0  0  0
   16.6400   -6.0681   -4.3146 C   0  0  2  0  0  0  0  0  0  0  0  0
   15.2930   -6.4046   -4.1671 O   0  0  0  0  0  0  0  0  0  0  0  0
   17.0741   -5.4291   -3.0123 C   0  0  1  0  0  0  0  0  0  0  0  0
   18.4433   -5.2290   -2.9993 O   0  0  0  0  0  0  0  0  0  0  0  0
   16.3014   -4.1523   -2.8742 C   0  0  1  0  0  0  0  0  0  0  0  0
   16.6968   -3.4931   -1.7002 O   0  0  0  0  0  0  0  0  0  0  0  0
  1  2  1  0
  3  2  1  6
  3  4  1  0
  4  5  1  0
  5  6  1  0
  6  7  1  1
  6  8  1  0
  8  9  1  6
  8 10  1  0
 10 11  1  1
 10  3  1  0
M  END
>  <docking_score>  (2) 
-3.411

$$$$

     RDKit          3D

 11 11  0  0  0  0  0  0  0  0999 V2000
   15.9123   -1.2961   -1.9240 O   0  0  0  0  0  0  0  0  0  0  0  0
   17.0935   -1.9808   -2.2790 C   0  0  0  0  0  0  0  0  0  0  0  0
   16.9560   -2.6067   -3.6439 C   0  0  2  0  0  0  0  0  0  0  0  0
   17.1383   -1.6751   -4.6535 N   0  0  0  0  0  0  0  0  0  0  0  0
   16.1977   -1.5035   -5.6618 C   0  0  0  0  0  0  0  0  0  0  0  0
   15.0444   -2.4145   -5.7249 C   0  0  2  0  0  0  0  0  0  0  0  0
   13.9737   -1.8983   -4.9924 O   0  0  0  0  0  0  0  0  0  0  0  0
   15.3528   -3.7779   -5.1430 C   0  0  1  0  0  0  0  0  0  0  0  0
   16.2814   -4.4434   -5.9239 O   0  0  0  0  0  0  0  0  0  0  0  0
   15.8302   -3.5553   -3.7398 C   0  0  1  0  0  0  0  0  0  0  0  0
   16.1733   -4.7878   -3.1633 O   0  0  0  0  0  0  0  0  0  0  0  0
  1  2  1  0
  3  2  1  1
  3  4  1  0
  4  5  1  0
  5  6  1  0
  6  7  1  1
  6  8  1  0
  8  9  1  6
  8 10  1  0
 10 11  1  6
 10  3  1  0
M  END
>  <docking_score>  (3) 
-3.367

$$$$
