
     RDKit          3D

 11 11  0  0  0  0  0  0  0  0999 V2000
   18.2932   -6.3996   -3.0680 O   0  0  0  0  0  0  0  0  0  0  0  0
   18.2341   -5.0006   -2.8808 C   0  0  0  0  0  0  0  0  0  0  0  0
   16.7861   -4.5862   -3.0228 C   0  0  1  0  0  0  0  0  0  0  0  0
   16.5089   -3.5204   -2.1103 N   0  0  0  0  0  0  0  0  0  0  0  0
   16.8274   -2.2139   -2.6479 C   0  0  0  0  0  0  0  0  0  0  0  0
   15.8504   -1.8659   -3.7480 C   0  0  2  0  0  0  0  0  0  0  0  0
   14.7570   -1.1657   -3.2977 O   0  0  0  0  0  0  0  0  0  0  0  0
   15.3702   -3.1329   -4.4137 C   0  0  1  0  0  0  0  0  0  0  0  0
   14.9480   -2.8877   -5.7070 O   0  0  0  0  0  0  0  0  0  0  0  0
   16.5250   -4.1007   -4.4316 C   0  0  1  0  0  0  0  0  0  0  0  0
   17.6546   -3.3637   -4.8460 O   0  0  0  0  0  0  0  0  0  0  0  0
  1  2  1  0
  3  2  1  6
  3  4  1  0
  4  5  1  0
  5  6  1  0
  6  7  1  1
  6  8  1  0
  8  9  1  6
  8 10  1  0
 10 11  1  1
 10  3  1  0
M  END
>  <docking_score>  (1) 
-3.4169999999999998

$$$$

     RDKit          3D

 11 11  0  0  0  0  0  0  0  0999 V2000
   13.9400    0.2311   -5.0106 O   0  0  0  0  0  0  0  0  0  0  0  0
   14.8498   -0.6127   -5.6857 C   0  0  0  0  0  0  0  0  0  0  0  0
   14.6127   -2.0221   -5.1899 C   0  0  1  0  0  0  0  0  0  0  0  0
   14.9370   -2.9488   -6.2299 N   0  0  0  0  0  0  0  0  0  0  0  0
   16.3403   -3.3055   -6.2568 C   0  0  0  0  0  0  0  0  0  0  0  0
   16.6716   -4.1536   -5.0497 C   0  0  2  0  0  0  0  0  0  0  0  0
   16.5555   -5.5019   -5.2887 O   0  0  0  0  0  0  0  0  0  0  0  0
   15.7534   -3.7857   -3.9092 C   0  0  1  0  0  0  0  0  0  0  0  0
   16.3276   -4.0891   -2.6889 O   0  0  0  0  0  0  0  0  0  0  0  0
   15.4965   -2.3035   -3.9948 C   0  0  1  0  0  0  0  0  0  0  0  0
   16.7474   -1.6967   -4.2359 O   0  0  0  0  0  0  0  0  0  0  0  0
  1  2  1  0
  3  2  1  6
  3  4  1  0
  4  5  1  0
  5  6  1  0
  6  7  1  6
  6  8  1  0
  8  9  1  1
  8 10  1  0
 10 11  1  6
 10  3  1  0
M  END
>  <docking_score>  (2) 
-3.3319999999999999

$$$$

     RDKit          3D

 11 11  0  0  0  0  0  0  0  0999 V2000
   14.2519   -0.7149   -6.1209 O   0  0  0  0  0  0  0  0  0  0  0  0
   15.3901   -0.8717   -5.2990 C   0  0  0  0  0  0  0  0  0  0  0  0
   15.0726   -1.9513   -4.2880 C   0  0  1  0  0  0  0  0  0  0  0  0
   14.5829   -3.1083   -4.9714 N   0  0  0  0  0  0  0  0  0  0  0  0
   15.6384   -3.9895   -5.4260 C   0  0  0  0  0  0  0  0  0  0  0  0
   16.2910   -4.6557   -4.2360 C   0  0  2  0  0  0  0  0  0  0  0  0
   15.7247   -5.8666   -3.9171 O   0  0  0  0  0  0  0  0  0  0  0  0
   16.1932   -3.7470   -3.0345 C   0  0  1  0  0  0  0  0  0  0  0  0
   17.1954   -4.0173   -2.1216 O   0  0  0  0  0  0  0  0  0  0  0  0
   16.3244   -2.3291   -3.5273 C   0  0  1  0  0  0  0  0  0  0  0  0
   17.3984   -2.3244   -4.4425 O   0  0  0  0  0  0  0  0  0  0  0  0
  1  2  1  0
  3  2  1  6
  3  4  1  0
  4  5  1  0
  5  6  1  0
  6  7  1  1
  6  8  1  0
  8  9  1  1
  8 10  1  0
 10 11  1  6
 10  3  1  0
M  END
>  <docking_score>  (3) 
-3.3199999999999998

$$$$
