
     RDKit          3D

  9  8  0  0  0  0  0  0  0  0999 V2000
    6.6378    2.4585   -4.8205 C   0  0  0  0  0  0  0  0  0  0  0  0
    6.4382    2.1080   -6.2956 C   0  0  0  0  0  0  0  0  0  0  0  0
    6.0708    0.6343   -6.3272 C   0  0  0  0  0  0  0  0  0  0  0  0
    7.1510   -0.2289   -5.7484 C   0  0  0  0  0  0  0  0  0  0  0  0
    6.6649   -1.6320   -5.4181 C   0  0  0  0  0  0  0  0  0  0  0  0
    5.3379   -1.8040   -6.1365 C   0  0  0  0  0  0  0  0  0  0  0  0
    5.6152   -2.4818   -7.3864 N   0  0  0  0  0  0  0  0  0  0  0  0
    5.2427   -3.8437   -7.4887 C   0  0  0  0  0  0  0  0  0  0  0  0
    4.6966   -4.3850   -6.4973 O   0  0  0  0  0  0  0  0  0  0  0  0
  1  2  1  0
  2  3  1  0
  3  4  1  0
  4  5  1  0
  5  6  1  0
  6  7  1  0
  7  8  1  0
  8  9  2  0
M  END
>  <docking_score>  (1) 
-3.871

$$$$

     RDKit          3D

  9  8  0  0  0  0  0  0  0  0999 V2000
    4.6012   -4.7244   -7.0861 C   0  0  0  0  0  0  0  0  0  0  0  0
    5.7390   -3.7491   -7.3910 C   0  0  0  0  0  0  0  0  0  0  0  0
    5.1542   -2.3585   -7.2120 C   0  0  0  0  0  0  0  0  0  0  0  0
    5.5631   -1.4284   -8.3142 C   0  0  0  0  0  0  0  0  0  0  0  0
    6.3683   -0.2407   -7.8090 C   0  0  0  0  0  0  0  0  0  0  0  0
    6.0895   -0.1387   -6.3196 C   0  0  0  0  0  0  0  0  0  0  0  0
    7.0322    0.8166   -5.7744 N   0  0  0  0  0  0  0  0  0  0  0  0
    6.5742    2.1391   -5.5614 C   0  0  0  0  0  0  0  0  0  0  0  0
    5.3847    2.4090   -5.8549 O   0  0  0  0  0  0  0  0  0  0  0  0
  1  2  1  0
  2  3  1  0
  3  4  1  0
  4  5  1  0
  5  6  1  0
  6  7  1  0
  7  8  1  0
  8  9  2  0
M  END
>  <docking_score>  (2) 
-3.641

$$$$

     RDKit          3D

  9  8  0  0  0  0  0  0  0  0999 V2000
   19.5257    9.8754    1.4116 C   0  0  0  0  0  0  0  0  0  0  0  0
   19.3564    9.8613   -0.1082 C   0  0  0  0  0  0  0  0  0  0  0  0
   20.6446    9.2799   -0.6651 C   0  0  0  0  0  0  0  0  0  0  0  0
   20.4125    8.4940   -1.9203 C   0  0  0  0  0  0  0  0  0  0  0  0
   18.9367    8.2375   -2.1856 C   0  0  0  0  0  0  0  0  0  0  0  0
   18.8588    6.9050   -2.9102 C   0  0  0  0  0  0  0  0  0  0  0  0
   20.0617    6.7833   -3.7082 N   0  0  0  0  0  0  0  0  0  0  0  0
   19.9149    6.3681   -5.0537 C   0  0  0  0  0  0  0  0  0  0  0  0
   18.7585    6.1300   -5.4778 O   0  0  0  0  0  0  0  0  0  0  0  0
  1  2  1  0
  2  3  1  0
  3  4  1  0
  4  5  1  0
  5  6  1  0
  6  7  1  0
  7  8  1  0
  8  9  2  0
M  END
>  <docking_score>  (3) 
-3.6019999999999999

$$$$
