
     RDKit          3D

 71 71  0  0  0  0  0  0  0  0999 V2000
   21.0287    7.2237   -3.9855 C   0  0  0  0  0  0  0  0  0  0  0  0
   20.7430    7.9107   -2.6458 C   0  0  0  0  0  0  0  0  0  0  0  0
   21.2184    6.9749   -1.5277 C   0  0  0  0  0  0  0  0  0  0  0  0
   19.2258    8.0388   -2.5572 C   0  0  0  0  0  0  0  0  0  0  0  0
   18.6237    6.8389   -3.2412 C   0  0  0  0  0  0  0  0  0  0  0  0
   17.9504    7.2734   -4.5078 C   0  0  0  0  0  0  0  0  0  0  0  0
   17.8181    6.1086   -5.4875 C   0  0  1  0  0  0  0  0  0  0  0  0
   18.5204    6.5739   -6.7588 C   0  0  0  0  0  0  0  0  0  0  0  0
   18.5358    4.9411   -4.8699 C   0  0  0  0  0  3  0  0  0  0  0  0
   17.7586    3.6616   -4.9012 C   0  0  0  0  0  0  0  0  0  0  0  0
   16.9150    3.5016   -6.1425 C   0  0  0  0  0  0  0  0  0  0  0  0
   16.1777    2.1906   -6.1595 C   0  0  1  0  0  0  0  0  0  0  0  0
   17.0450    1.0024   -5.8831 C   0  0  0  0  0  0  0  0  0  0  0  0
   14.9170    2.2327   -5.3389 C   0  0  0  0  0  0  0  0  0  0  0  0
   14.2204    0.9251   -5.4157 C   0  0  2  0  0  0  0  0  0  0  0  0
   13.9342    0.4315   -6.7195 N   0  0  0  0  0  1  0  0  0  0  0  0
   13.2250    0.6327   -4.3561 C   0  0  0  0  0  0  0  0  0  0  0  0
   12.9803   -0.8190   -4.1150 C   0  0  0  0  0  0  0  0  0  0  0  0
   13.9758   -1.7298   -4.7595 C   0  0  1  0  0  0  0  0  0  0  0  0
   14.2566   -1.2101   -6.0314 O   0  0  0  0  0  0  0  0  0  0  0  0
   15.2567   -1.7974   -3.9531 C   0  0  1  0  0  0  0  0  0  0  0  0
   15.2374   -2.9502   -2.9787 C   0  0  0  0  0  0  0  0  0  0  0  0
   16.2389   -2.7952   -1.8785 C   0  0  0  0  0  0  0  0  0  0  0  0
   16.9698   -4.1040   -1.5693 C   0  0  0  0  0  0  0  0  0  0  0  0
   15.9790   -4.9534   -0.8358 C   0  0  0  0  0  0  0  0  0  0  0  0
   15.6044   -6.0802   -1.4193 C   0  0  0  0  0  0  0  0  0  0  0  0
   16.0890   -6.4851   -2.6552 O   0  0  0  0  0  0  0  0  0  0  0  0
   15.4841   -6.0802   -3.8057 O   0  0  0  0  0  0  0  0  0  0  0  0
   16.0491   -6.2607   -5.0452 C   0  0  0  0  0  0  0  0  0  0  0  0
   16.0383   -5.2952   -5.9508 C   0  0  0  0  0  0  0  0  0  0  0  0
   15.4255   -3.9648   -5.7031 C   0  0  0  0  0  0  0  0  0  0  0  0
   16.3414   -2.8182   -5.9879 C   0  0  0  0  0  0  0  0  0  0  0  0
   16.4702   -1.8442   -4.8561 C   0  0  2  0  0  0  0  0  0  0  0  0
   17.6943   -2.2196   -4.0495 C   0  0  0  0  0  0  0  0  0  0  0  0
   18.9420   -1.6342   -4.6435 C   0  0  0  0  0  0  0  0  0  0  0  0
   18.9341   -1.8640   -6.1370 C   0  0  0  0  0  0  0  0  0  0  0  0
   19.0071   -0.5129   -6.8023 C   0  0  0  0  0  0  0  0  0  0  0  0
   20.2625   -0.3254   -7.5215 C   0  0  1  0  0  0  0  0  0  0  0  0
   21.1817   -1.4307   -7.7423 C   0  0  0  0  0  0  0  0  0  0  0  0
   20.5008    0.9880   -8.1290 C   0  0  0  0  0  0  0  0  0  0  0  0
   21.3654    1.8318   -7.1815 C   0  0  0  0  0  0  0  0  0  0  0  0
   20.4034    2.2229   -6.0467 C   0  0  0  0  0  0  0  0  0  0  0  0
   20.9358    1.5854   -4.8109 C   0  0  1  0  0  0  0  0  0  0  0  0
   21.0223    2.6446   -3.7024 C   0  0  0  0  0  0  0  0  0  0  0  0
   20.1780    0.4152   -4.2861 C   0  0  0  0  0  0  0  0  0  0  0  0
   19.4735    0.7832   -3.0137 C   0  0  0  0  0  0  0  0  0  0  0  0
   20.2560    0.3738   -1.7576 C   0  0  2  0  0  0  0  0  0  0  0  0
   21.1121   -0.6933   -2.1457 O   0  0  0  0  0  0  0  0  0  0  0  0
   19.2560   -0.1625   -0.7747 C   0  0  1  0  0  0  0  0  0  0  0  0
   19.4465   -1.5985   -0.3870 C   0  0  0  0  0  0  0  0  0  0  0  0
   18.8733    0.6969    0.3703 C   0  0  0  0  0  3  0  0  0  0  0  0
   17.4008    0.8925    0.5408 C   0  0  0  0  0  0  0  0  0  0  0  0
   16.9897    0.7195    1.9538 C   0  0  0  0  0  3  0  0  0  0  0  0
   15.7519    1.5251    2.3144 C   0  0  2  0  0  0  0  0  0  0  0  0
   16.1045    3.0166    2.2148 C   0  0  0  0  0  0  0  0  0  0  0  0
   15.2473    1.2352    3.7200 C   0  0  0  0  0  0  0  0  0  0  0  0
   16.3865    0.6156    4.4661 C   0  0  0  0  0  0  0  0  0  0  0  0
   15.9316   -0.3604    5.5300 C   0  0  2  0  0  0  0  0  0  0  0  0
   14.7045   -1.1296    5.0892 C   0  0  0  0  0  0  0  0  0  0  0  0
   15.6859    0.3481    6.8484 C   0  0  0  0  0  3  0  0  0  0  0  0
   14.6096    1.3818    6.7449 C   0  0  0  0  0  0  0  0  0  0  0  0
   13.8820    1.4552    8.0713 C   0  0  0  0  0  0  0  0  0  0  0  0
   14.1568    2.7461    8.8050 C   0  0  0  0  0  0  0  0  0  0  0  0
   14.6748    2.4469   10.1727 C   0  0  0  0  0  3  0  0  0  0  0  0
   16.1390    2.4914   10.2796 C   0  0  0  0  0  0  0  0  0  0  0  0
   16.7123    2.7017   11.3916 N   0  0  0  0  0  0  0  0  0  0  0  0
   15.7684    2.9476   12.8449 S   0  0  0  0  0  0  0  0  0  0  0  0
   15.8045    4.6618   13.3927 C   0  0  0  0  0  0  0  0  0  0  0  0
   14.5929    4.9917   14.2638 C   0  0  2  0  0  0  0  0  0  0  0  0
   14.1487    6.4011   13.9714 C   0  0  0  0  0  0  0  0  0  0  0  0
   15.0332    4.9234   15.9896 Cl  0  0  0  0  0  0  0  0  0  0  0  0
  1  2  1  0
  2  3  1  0
  2  4  1  0
  4  5  1  0
  5  6  1  0
  6  7  1  0
  7  8  1  6
  7  9  1  0
  9 10  1  0
 10 11  1  0
 11 12  1  0
 12 13  1  1
 12 14  1  0
 14 15  1  0
 15 16  1  6
 15 17  1  0
 17 18  1  0
 18 19  1  0
 19 20  1  6
 19 21  1  0
 21 22  1  6
 22 23  1  0
 23 24  1  0
 24 25  1  0
 25 26  2  3
 26 27  1  0
 27 28  1  0
 28 29  1  0
 29 30  2  3
 30 31  1  0
 31 32  1  0
 32 33  1  0
 33 34  1  1
 34 35  1  0
 35 36  1  0
 36 37  1  0
 37 38  1  0
 38 39  1  6
 38 40  1  0
 40 41  1  0
 41 42  1  0
 42 43  1  0
 43 44  1  1
 43 45  1  0
 45 46  1  0
 46 47  1  0
 47 48  1  6
 47 49  1  0
 49 50  1  1
 49 51  1  0
 51 52  1  0
 52 53  1  0
 53 54  1  0
 54 55  1  1
 54 56  1  0
 56 57  1  0
 57 58  1  0
 58 59  1  6
 58 60  1  0
 60 61  1  0
 61 62  1  0
 62 63  1  0
 63 64  1  0
 64 65  1  0
 65 66  2  3
 66 67  1  0
 67 68  1  0
 68 69  1  0
 69 70  1  6
 69 71  1  0
 33 21  1  0
M  CHG  1  16   1
M  RAD  6   9   2  16   2  51   2  53   2  60   2  64   2
M  END
>  <docking_score>  (1) 
38.462000000000003

$$$$
