
     RDKit          3D

 66 70  0  0  0  0  0  0  0  0999 V2000
   19.0605   -3.4465   -3.2407 C   0  0  0  0  0  0  0  0  0  0  0  0
   19.1821   -2.5809   -2.1415 O   0  0  0  0  0  0  0  0  0  0  0  0
   20.2685   -1.7236   -2.3386 C   0  0  0  0  0  3  0  0  0  0  0  0
   20.0464   -0.7714   -3.3201 O   0  0  0  0  0  0  0  0  0  0  0  0
   20.1143   -1.3422   -4.5450 C   0  0  2  0  0  0  0  0  0  0  0  0
   21.3570   -0.9890   -5.3185 C   0  0  0  0  0  0  0  0  0  0  0  0
   20.9030   -0.3734   -6.6317 C   0  0  0  0  0  2  0  0  0  0  0  0
   18.8639   -1.1530   -5.4167 C   0  0  1  0  0  0  0  0  0  0  0  0
   18.4652   -2.5569   -5.8869 C   0  0  0  0  0  3  0  0  0  0  0  0
   17.3744   -2.5183   -4.8722 C   0  0  1  0  0  0  0  0  0  0  0  0
   17.6328   -3.3708   -3.6574 C   0  0  2  0  0  0  0  0  0  0  0  0
   16.7353   -2.8465   -2.5418 C   0  0  0  0  0  0  0  0  0  0  0  0
   17.0959   -4.7424   -4.0264 C   0  0  0  0  0  0  0  0  0  0  0  0
   16.0547   -4.4302   -5.1494 C   0  0  1  0  0  0  0  0  0  0  0  0
   16.2678   -5.0976   -6.2075 O   0  0  0  0  0  0  0  0  0  0  0  0
   17.3172   -5.9535   -6.3319 C   0  0  2  0  0  0  0  0  0  0  0  0
   16.7986   -7.1365   -7.0408 O   0  0  0  0  0  0  0  0  0  0  0  0
   17.7922   -6.5759   -5.0033 C   0  0  0  0  0  3  0  0  0  0  0  0
   19.1688   -6.8323   -5.0988 O   0  0  0  0  0  0  0  0  0  0  0  0
   17.5898   -1.0556   -4.5982 C   0  0  2  0  0  0  0  0  0  0  0  0
   16.4566   -0.3592   -5.3226 C   0  0  0  0  0  3  0  0  0  0  0  0
   15.1831   -1.1494   -4.8489 C   0  0  2  0  0  0  0  0  0  0  0  0
   15.0782   -2.3274   -5.4816 O   0  0  0  0  0  0  0  0  0  0  0  0
   15.0199   -3.5128   -4.6238 C   0  0  1  0  0  0  0  0  0  0  0  0
   13.8329   -4.1443   -5.1601 O   0  0  0  0  0  0  0  0  0  0  0  0
   13.0636   -3.1976   -5.8912 C   0  0  0  0  0  3  0  0  0  0  0  0
   11.6444   -3.4389   -5.2092 C   0  0  0  0  0  2  0  0  0  0  0  0
   14.0427   -0.2189   -5.3423 C   0  0  0  0  0  3  0  0  0  0  0  0
   13.1860    0.1397   -4.3338 O   0  0  0  0  0  0  0  0  0  0  0  0
   12.3727    1.1140   -4.7295 O   0  0  0  0  0  0  0  0  0  0  0  0
   11.1219    0.8857   -4.1316 C   0  0  0  0  0  3  0  0  0  0  0  0
   10.7920   -0.4532   -4.1658 O   0  0  0  0  0  0  0  0  0  0  0  0
    9.9347   -0.8138   -3.1177 C   0  0  0  0  0  3  0  0  0  0  0  0
    9.7406    0.2493   -2.2250 O   0  0  0  0  0  0  0  0  0  0  0  0
    9.0815    1.2982   -2.8707 C   0  0  0  0  0  3  0  0  0  0  0  0
    8.9159    2.4065   -2.0577 O   0  0  0  0  0  0  0  0  0  0  0  0
    8.0751    3.3293   -2.6899 C   0  0  0  0  0  3  0  0  0  0  0  0
    7.4918    4.1075   -1.6919 O   0  0  0  0  0  0  0  0  0  0  0  0
    8.0159    3.6748   -0.4683 C   0  0  0  0  0  3  0  0  0  0  0  0
    8.0039    4.7809    0.3847 O   0  0  0  0  0  0  0  0  0  0  0  0
    6.9626    4.5972    1.2859 C   0  0  0  0  0  3  0  0  0  0  0  0
    5.7999    5.1298    0.7566 O   0  0  0  0  0  0  0  0  0  0  0  0
    5.5226    6.3374    1.3866 C   0  0  0  0  0  3  0  0  0  0  0  0
    4.3891    6.2156    2.1283 O   0  0  0  0  0  0  0  0  0  0  0  0
    4.2222    4.9606    2.7544 C   0  0  0  0  0  3  0  0  0  0  0  0
    3.7341    5.2440    4.1247 C   0  0  0  0  0  0  0  0  0  0  0  0
    3.5303    6.5412    4.4318 O   0  0  0  0  0  0  0  0  0  0  0  0
    4.6747    7.2735    4.1564 C   0  0  1  0  0  0  0  0  0  0  0  0
    4.5150    8.2494    3.2284 O   0  0  0  0  0  0  0  0  0  0  0  0
    5.4888    9.1501    3.2329 O   0  0  0  0  0  0  0  0  0  0  0  0
    4.9073   10.3921    3.4746 C   0  0  0  0  0  3  0  0  0  0  0  0
    5.6276   11.1723    4.3856 O   0  0  0  0  0  0  0  0  0  0  0  0
    4.7600   11.8162    5.1336 O   0  0  0  0  0  0  0  0  0  0  0  0
    3.9336   10.9360    5.7545 C   0  0  2  0  0  0  0  0  0  0  0  0
    3.0839   11.5940    6.6211 O   0  0  0  0  0  0  0  0  0  0  0  0
    4.6323    9.8450    6.5071 C   0  0  1  0  0  0  0  0  0  0  0  0
    4.2702    8.5935    6.1237 O   0  0  0  0  0  0  0  0  0  0  0  0
    5.1323    7.7944    5.5200 C   0  0  1  0  0  0  0  0  0  0  0  0
    5.2858    6.5157    6.3757 C   0  0  0  0  0  3  0  0  0  0  0  0
    6.0016    5.2444    5.3224 S   0  0  0  0  0  0  0  0  0  0  0  0
    7.6086    5.9119    4.7121 C   0  0  0  0  0  3  0  0  0  0  0  0
    8.1909    6.6293    5.7179 O   0  0  0  0  0  0  0  0  0  0  0  0
    8.7075    7.7886    5.2103 O   0  0  0  0  0  0  0  0  0  0  0  0
    7.8858    9.0008    5.3789 C   0  0  0  0  0  0  0  0  0  0  0  0
    6.8539    8.8626    6.2419 C   0  0  0  0  0  0  0  0  0  0  0  0
    6.0107   10.0150    6.4212 O   0  0  0  0  0  0  0  0  0  0  0  0
  1  2  1  0
  2  3  1  0
  3  4  1  0
  4  5  1  0
  5  6  1  6
  6  7  1  0
  5  8  1  0
  8  9  1  6
 10  9  1  6
 10 11  1  0
 11 12  1  1
 11 13  1  0
 13 14  1  0
 14 15  1  1
 15 16  1  0
 16 17  1  6
 16 18  1  0
 18 19  1  0
  8 20  1  0
 20 21  1  6
 21 22  1  0
 22 23  1  0
 23 24  1  0
 24 25  1  6
 25 26  1  0
 26 27  1  0
 22 28  1  6
 28 29  1  0
 29 30  1  0
 30 31  1  0
 31 32  1  0
 32 33  1  0
 33 34  1  0
 34 35  1  0
 35 36  1  0
 36 37  1  0
 37 38  1  0
 38 39  1  0
 39 40  1  0
 40 41  1  0
 41 42  1  0
 42 43  1  0
 43 44  1  0
 44 45  1  0
 45 46  1  0
 46 47  1  0
 48 47  1  1
 48 49  1  0
 49 50  1  0
 50 51  1  0
 51 52  1  0
 52 53  1  0
 53 54  1  0
 54 55  1  1
 54 56  1  0
 56 57  1  0
 57 58  1  0
 58 59  1  1
 59 60  1  0
 60 61  1  0
 61 62  1  0
 62 63  1  0
 63 64  1  0
 64 65  2  3
 65 66  1  0
 11  1  1  0
 20 10  1  0
 24 14  1  0
 58 48  1  0
 56 66  1  6
M  RAD  8   3   2   7   3   9   2  18   2  21   2  26   2  27   3  28   2
M  RAD  8  31   2  33   2  35   2  37   2  39   2  41   2  43   2  45   2
M  RAD  3  51   2  59   2  61   2
M  END
>  <docking_score>  (1) 
23.713999999999999

$$$$
