
     RDKit          3D

 55 59  0  0  0  0  0  0  0  0999 V2000
    8.1367   -0.6486   -6.6721 C   0  0  0  0  0  0  0  0  0  0  0  0
    7.3159    0.5335   -7.0878 C   0  0  0  0  0  3  0  0  0  0  0  0
    7.6201    1.7176   -6.1946 C   0  0  0  0  0  0  0  0  0  0  0  0
    6.4427    2.0691   -5.3005 C   0  0  0  0  0  3  0  0  0  0  0  0
    5.2929    2.3522   -6.1846 C   0  0  0  0  0  0  0  0  0  0  0  0
    4.5076    3.2187   -5.8886 O   0  0  0  0  0  0  0  0  0  0  0  0
    5.1256    1.5632   -7.4228 C   0  0  0  0  0  0  0  0  0  0  0  0
    5.8560    0.2409   -7.2064 C   0  0  2  0  0  0  0  0  0  0  0  0
    5.3487   -0.2933   -5.8614 C   0  0  0  0  0  0  0  0  0  0  0  0
    6.0636   -1.5790   -5.5992 C   0  0  0  0  0  0  0  0  0  0  0  0
    7.5487   -1.4116   -5.5290 C   0  0  2  0  0  0  0  0  0  0  0  0
    7.9191   -0.7633   -4.2275 C   0  0  0  0  0  0  0  0  0  0  0  0
    9.0708    0.1970   -4.4329 C   0  0  0  0  0  0  0  0  0  0  0  0
   10.3730   -0.4368   -3.9878 C   0  0  0  0  0  3  0  0  0  0  0  0
   10.1695   -1.6757   -3.1666 C   0  0  0  0  0  0  0  0  0  0  0  0
   11.2903   -0.7242   -5.1304 C   0  0  0  0  0  3  0  0  0  0  0  0
   12.5894   -1.4053   -4.7430 C   0  0  0  0  0  0  0  0  0  0  0  0
   12.0558    0.4675   -5.6631 C   0  0  0  0  0  0  0  0  0  0  0  0
   13.2482   -0.0228   -4.8317 C   0  0  0  0  0  0  0  0  0  0  0  0
   14.5315   -0.1423   -5.5996 C   0  0  0  0  0  0  0  0  0  0  0  0
   15.5458   -0.7048   -4.8218 O   0  0  0  0  0  0  0  0  0  0  0  0
   15.1105   -0.7963   -3.5017 C   0  0  0  0  0  0  0  0  0  0  0  0
   15.4144   -2.1225   -2.9428 C   0  0  0  0  0  0  0  0  0  0  0  0
   16.6156   -2.6629   -2.8969 C   0  0  0  0  0  0  0  0  0  0  0  0
   16.9034   -4.0055   -2.3278 C   0  0  0  0  0  3  0  0  0  0  0  0
   18.3199   -4.3243   -2.6979 C   0  0  2  0  0  0  0  0  0  0  0  0
   18.9374   -3.0703   -3.2617 C   0  0  0  0  0  0  0  0  0  0  0  0
   17.8633   -2.0470   -3.3911 C   0  0  1  0  0  0  0  0  0  0  0  0
   17.7524   -1.5313   -4.6748 O   0  0  0  0  0  0  0  0  0  0  0  0
   16.9326   -2.3419   -5.4231 C   0  0  0  0  0  0  0  0  0  0  0  0
   17.5830   -2.8100   -6.7072 C   0  0  2  0  0  0  0  0  0  0  0  0
   17.2895   -1.7454   -7.7658 C   0  0  0  0  0  3  0  0  0  0  0  0
   18.4690   -1.4388   -8.4345 O   0  0  0  0  0  0  0  0  0  0  0  0
   19.5853   -1.7267   -7.6222 C   0  0  0  0  0  0  0  0  0  0  0  0
   20.8346   -1.8055   -8.4368 C   0  0  0  0  0  1  0  0  0  0  0  0
   16.9116   -3.9610   -7.1168 O   0  0  0  0  0  0  0  0  0  0  0  0
   17.7859   -4.9919   -7.4428 C   0  0  1  0  0  0  0  0  0  0  0  0
   19.0115   -4.5102   -7.9042 O   0  0  0  0  0  0  0  0  0  0  0  0
   17.9818   -5.8157   -6.1649 C   0  0  0  0  0  3  0  0  0  0  0  0
   18.3212   -4.8524   -5.0738 C   0  0  0  0  0  0  0  0  0  0  0  0
   18.4080   -5.4652   -3.7133 C   0  0  1  0  0  0  0  0  0  0  0  0
   19.6699   -6.0550   -3.4977 O   0  0  0  0  0  0  0  0  0  0  0  0
   19.5924   -7.3523   -3.4699 O   0  0  0  0  0  0  0  0  0  0  0  0
   20.5014   -7.9893   -4.2965 C   0  0  0  0  0  3  0  0  0  0  0  0
   19.7871   -8.3981   -5.5497 C   0  0  0  0  0  0  0  0  0  0  0  0
   20.6024   -8.1064   -6.7941 C   0  0  2  0  0  0  0  0  0  0  0  0
   21.0181   -6.6471   -6.7289 C   0  0  0  0  0  0  0  0  0  0  0  0
   19.6889   -8.3239   -7.9894 C   0  0  1  0  0  0  0  0  0  0  0  0
   20.0096   -9.5115   -8.6119 O   0  0  0  0  0  0  0  0  0  0  0  0
   18.2920   -8.4105   -7.5181 C   0  0  0  0  0  0  0  0  0  0  0  0
   17.5501   -9.4752   -7.8379 C   0  0  0  0  0  3  0  0  0  0  0  0
   17.3823   -6.5248   -3.4591 C   0  0  0  0  0  0  0  0  0  0  0  0
   17.1688   -6.8313   -2.0110 C   0  0  0  0  0  0  0  0  0  0  0  0
   17.0326   -5.7063   -1.2265 O   0  0  0  0  0  0  0  0  0  0  0  0
   15.7318   -5.6523   -0.7407 C   0  0  0  0  0  2  0  0  0  0  0  0
  1  2  1  0
  2  3  1  0
  3  4  1  0
  4  5  1  0
  5  6  2  0
  5  7  1  0
  8  7  1  1
  8  9  1  0
  9 10  1  0
 10 11  1  0
 11 12  1  1
 12 13  1  0
 13 14  1  0
 14 15  1  0
 16 14  1  0
 16 17  1  0
 16 18  1  0
 18 19  1  0
 19 20  1  0
 20 21  1  0
 21 22  1  0
 22 23  1  0
 23 24  2  3
 24 25  1  0
 26 25  1  6
 26 27  1  0
 27 28  1  0
 28 29  1  6
 29 30  1  0
 30 31  1  0
 31 32  1  6
 32 33  1  0
 33 34  1  0
 34 35  1  0
 31 36  1  0
 36 37  1  0
 37 38  1  1
 37 39  1  0
 39 40  1  0
 40 41  1  0
 41 42  1  0
 42 43  1  0
 43 44  1  0
 44 45  1  0
 45 46  1  0
 46 47  1  1
 46 48  1  0
 48 49  1  1
 48 50  1  0
 50 51  2  0
 41 52  1  1
 52 53  1  0
 53 54  1  0
 54 55  1  0
 11  1  1  0
  8  2  1  0
 19 17  1  0
 28 24  1  0
 41 26  1  0
M  RAD  8   2   2   4   2  14   2  16   2  25   2  32   2  35   2  39   2
M  RAD  3  44   2  51   2  55   3
M  END
>  <docking_score>  (1) 
12.65

$$$$
