
     RDKit          3D

 29 28  0  0  0  0  0  0  0  0999 V2000
   14.9966   -7.2542   -5.1702 C   0  0  0  0  0  0  0  0  0  0  0  0
   15.6296   -5.8959   -5.3985 C   0  0  0  0  0  0  0  0  0  0  0  0
   16.6247   -5.9323   -6.5319 C   0  0  2  0  0  0  0  0  0  0  0  0
   15.9405   -5.9252   -7.8846 C   0  0  0  0  0  0  0  0  0  0  0  0
   17.4250   -7.2012   -6.4362 C   0  0  0  0  0  0  0  0  0  0  0  0
   17.3108   -8.0606   -7.3491 O   0  0  0  0  0  0  0  0  0  0  0  0
   18.2771   -7.4479   -5.3795 O   0  0  0  0  0  0  0  0  0  0  0  0
   19.6580   -7.5954   -5.6541 C   0  0  0  0  0  3  0  0  0  0  0  0
   20.3240   -6.2615   -5.3897 C   0  0  0  0  0  0  0  0  0  0  0  0
   20.3641   -5.9548   -3.9214 C   0  0  2  0  0  0  0  0  0  0  0  0
   21.3818   -6.8049   -3.2116 C   0  0  0  0  0  0  0  0  0  0  0  0
   19.0305   -6.1729   -3.3542 C   0  0  0  0  0  0  0  0  0  0  0  0
   18.5128   -5.3581   -2.4834 C   0  0  0  0  0  0  0  0  0  0  0  0
   19.1632   -4.1774   -1.9828 C   0  0  0  0  0  0  0  0  0  0  0  0
   18.4996   -3.0499   -1.7963 C   0  0  0  0  0  0  0  0  0  0  0  0
   17.0554   -2.8767   -2.0725 C   0  0  2  0  0  0  0  0  0  0  0  0
   16.2854   -4.0959   -1.6143 C   0  0  0  0  0  0  0  0  0  0  0  0
   16.7879   -2.5791   -3.5318 C   0  0  2  0  0  0  0  0  0  0  0  0
   17.6144   -1.4093   -3.9362 C   0  0  0  0  0  0  0  0  0  0  0  0
   18.3842   -1.5850   -5.2001 C   0  0  0  0  0  0  0  0  0  0  0  0
   19.1721   -0.3366   -5.4867 C   0  0  0  0  0  0  0  0  0  0  0  0
   20.6102   -0.6937   -5.6960 C   0  0  0  0  0  0  0  0  0  0  0  0
   21.3232   -0.3931   -4.5385 O   0  0  0  0  0  0  0  0  0  0  0  0
   15.4572   -2.4947   -3.8318 O   0  0  0  0  0  0  0  0  0  0  0  0
   15.1399   -1.6500   -4.8660 C   0  0  0  0  0  0  0  0  0  0  0  0
   14.8773   -2.5124   -6.0945 C   0  0  0  0  0  0  0  0  0  0  0  0
   14.8356   -1.6578   -7.3413 C   0  0  0  0  0  0  0  0  0  0  0  0
   15.7154   -2.2996   -8.3565 C   0  0  0  0  0  0  0  0  0  0  0  0
   16.8697   -2.6482   -8.0957 O   0  0  0  0  0  0  0  0  0  0  0  0
  1  2  1  0
  2  3  1  0
  3  4  1  6
  3  5  1  0
  5  6  2  0
  5  7  1  0
  7  8  1  0
  8  9  1  0
  9 10  1  0
 10 11  1  1
 10 12  1  0
 12 13  2  3
 13 14  1  0
 14 15  2  3
 15 16  1  0
 16 17  1  6
 16 18  1  0
 18 19  1  1
 19 20  1  0
 20 21  1  0
 21 22  1  0
 22 23  1  0
 18 24  1  0
 24 25  1  0
 25 26  1  0
 26 27  1  0
 27 28  1  0
 28 29  2  0
M  RAD  1   8   2
M  END
>  <docking_score>  (1) 
-3.214

$$$$

     RDKit          3D

 29 28  0  0  0  0  0  0  0  0999 V2000
   18.3038   -8.7068   -4.8397 C   0  0  0  0  0  0  0  0  0  0  0  0
   19.6943   -8.4370   -5.3797 C   0  0  0  0  0  0  0  0  0  0  0  0
   19.8985   -9.0796   -6.7294 C   0  0  2  0  0  0  0  0  0  0  0  0
   21.3547   -9.0599   -7.1498 C   0  0  0  0  0  0  0  0  0  0  0  0
   19.1200   -8.3081   -7.7583 C   0  0  0  0  0  0  0  0  0  0  0  0
   19.7348   -7.8150   -8.7399 O   0  0  0  0  0  0  0  0  0  0  0  0
   17.7560   -8.1270   -7.6558 O   0  0  0  0  0  0  0  0  0  0  0  0
   17.2515   -6.8051   -7.7004 C   0  0  0  0  0  3  0  0  0  0  0  0
   18.4161   -5.8614   -7.4857 C   0  0  0  0  0  0  0  0  0  0  0  0
   18.2804   -5.1155   -6.1908 C   0  0  2  0  0  0  0  0  0  0  0  0
   17.5088   -3.8374   -6.3728 C   0  0  0  0  0  0  0  0  0  0  0  0
   19.6181   -4.8345   -5.6622 C   0  0  0  0  0  0  0  0  0  0  0  0
   19.8408   -4.7103   -4.3875 C   0  0  0  0  0  0  0  0  0  0  0  0
   18.8342   -4.8292   -3.3675 C   0  0  0  0  0  0  0  0  0  0  0  0
   18.3863   -3.7724   -2.7128 C   0  0  0  0  0  0  0  0  0  0  0  0
   18.8540   -2.3870   -2.9456 C   0  0  2  0  0  0  0  0  0  0  0  0
   18.7718   -1.5851   -1.6652 C   0  0  0  0  0  0  0  0  0  0  0  0
   18.0908   -1.7103   -4.0633 C   0  0  2  0  0  0  0  0  0  0  0  0
   18.9872   -0.7179   -4.7164 C   0  0  0  0  0  0  0  0  0  0  0  0
   20.1256   -1.3006   -5.4815 C   0  0  0  0  0  0  0  0  0  0  0  0
   20.2013   -0.6570   -6.8385 C   0  0  0  0  0  0  0  0  0  0  0  0
   20.0777   -1.7095   -7.8952 C   0  0  0  0  0  0  0  0  0  0  0  0
   21.1327   -2.6085   -7.7625 O   0  0  0  0  0  0  0  0  0  0  0  0
   16.8687   -1.2373   -3.6750 O   0  0  0  0  0  0  0  0  0  0  0  0
   15.8871   -2.1868   -3.5381 C   0  0  0  0  0  0  0  0  0  0  0  0
   14.9285   -2.0234   -4.7113 C   0  0  0  0  0  0  0  0  0  0  0  0
   14.9752   -0.6071   -5.2390 C   0  0  0  0  0  0  0  0  0  0  0  0
   13.8412    0.1387   -4.6273 C   0  0  0  0  0  0  0  0  0  0  0  0
   12.7294   -0.3727   -4.4717 O   0  0  0  0  0  0  0  0  0  0  0  0
  1  2  1  0
  2  3  1  0
  3  4  1  6
  3  5  1  0
  5  6  2  0
  5  7  1  0
  7  8  1  0
  8  9  1  0
  9 10  1  0
 10 11  1  6
 10 12  1  0
 12 13  2  3
 13 14  1  0
 14 15  2  3
 15 16  1  0
 16 17  1  1
 16 18  1  0
 18 19  1  1
 19 20  1  0
 20 21  1  0
 21 22  1  0
 22 23  1  0
 18 24  1  0
 24 25  1  0
 25 26  1  0
 26 27  1  0
 27 28  1  0
 28 29  2  0
M  RAD  1   8   2
M  END
>  <docking_score>  (2) 
-2.601

$$$$

     RDKit          3D

 29 28  0  0  0  0  0  0  0  0999 V2000
    5.3105   12.6794    5.2514 C   0  0  0  0  0  0  0  0  0  0  0  0
    5.4082   13.0410    3.7825 C   0  0  0  0  0  0  0  0  0  0  0  0
    5.7265   11.8340    2.9352 C   0  0  2  0  0  0  0  0  0  0  0  0
    4.4976   11.3037    2.2234 C   0  0  0  0  0  0  0  0  0  0  0  0
    6.2427   10.7376    3.8246 C   0  0  0  0  0  0  0  0  0  0  0  0
    7.4374   10.7877    4.2182 O   0  0  0  0  0  0  0  0  0  0  0  0
    5.4456    9.6828    4.2193 O   0  0  0  0  0  0  0  0  0  0  0  0
    5.6402    9.1451    5.5143 C   0  0  0  0  0  3  0  0  0  0  0  0
    4.4445    9.5344    6.3578 C   0  0  0  0  0  0  0  0  0  0  0  0
    4.1346    8.4815    7.3811 C   0  0  2  0  0  0  0  0  0  0  0  0
    3.5164    7.2659    6.7467 C   0  0  0  0  0  0  0  0  0  0  0  0
    3.2322    9.0482    8.3872 C   0  0  0  0  0  0  0  0  0  0  0  0
    3.4988    8.9924    9.6583 C   0  0  0  0  0  0  0  0  0  0  0  0
    4.6760    8.3865   10.2196 C   0  0  0  0  0  0  0  0  0  0  0  0
    4.8074    8.2100   11.5226 C   0  0  0  0  0  0  0  0  0  0  0  0
    3.7904    8.6031   12.5243 C   0  0  2  0  0  0  0  0  0  0  0  0
    2.4254    8.6897   11.8774 C   0  0  0  0  0  0  0  0  0  0  0  0
    4.1485    9.8989   13.2186 C   0  0  2  0  0  0  0  0  0  0  0  0
    2.8931   10.5540   13.6767 C   0  0  0  0  0  0  0  0  0  0  0  0
    2.5559   10.3415   15.1126 C   0  0  0  0  0  0  0  0  0  0  0  0
    3.5628   11.0501   15.9759 C   0  0  0  0  0  0  0  0  0  0  0  0
    3.3116   12.5245   15.9242 C   0  0  0  0  0  0  0  0  0  0  0  0
    4.5319   13.1871   15.8214 O   0  0  0  0  0  0  0  0  0  0  0  0
    4.9948   10.6871   12.4903 O   0  0  0  0  0  0  0  0  0  0  0  0
    6.1881   10.9875   13.0984 C   0  0  0  0  0  0  0  0  0  0  0  0
    6.3651   12.4995   13.0325 C   0  0  0  0  0  0  0  0  0  0  0  0
    7.1009   12.8913   11.7709 C   0  0  0  0  0  0  0  0  0  0  0  0
    6.1435   13.6301   10.9026 C   0  0  0  0  0  0  0  0  0  0  0  0
    5.8110   13.2115    9.7908 O   0  0  0  0  0  0  0  0  0  0  0  0
  1  2  1  0
  2  3  1  0
  3  4  1  1
  3  5  1  0
  5  6  2  0
  5  7  1  0
  7  8  1  0
  8  9  1  0
  9 10  1  0
 10 11  1  6
 10 12  1  0
 12 13  2  3
 13 14  1  0
 14 15  2  3
 15 16  1  0
 16 17  1  6
 16 18  1  0
 18 19  1  6
 19 20  1  0
 20 21  1  0
 21 22  1  0
 22 23  1  0
 18 24  1  0
 24 25  1  0
 25 26  1  0
 26 27  1  0
 27 28  1  0
 28 29  2  0
M  RAD  1   8   2
M  END
>  <docking_score>  (3) 
-2.4420000000000002

$$$$
