
     RDKit          3D

 69 72  0  0  0  0  0  0  0  0999 V2000
   14.9788    0.3474   -2.5379 C   0  0  0  0  0  0  0  0  0  0  0  0
   15.2411   -0.8585   -1.6852 C   0  0  0  0  0  0  0  0  0  0  0  0
   15.7893   -2.1100   -2.3043 C   0  0  0  0  0  0  0  0  0  0  0  0
   16.0516   -3.3159   -1.4516 C   0  0  0  0  0  0  0  0  0  0  0  0
   16.5998   -4.5673   -2.0708 O   0  0  0  0  0  0  0  0  0  0  0  0
   15.7657   -3.2702    0.0202 C   0  0  0  0  0  0  0  0  0  0  0  0
   16.0281   -4.4761    0.8729 O   0  0  0  0  0  0  0  0  0  0  0  0
   15.2175   -2.0188    0.6393 C   0  0  0  0  0  0  0  0  0  0  0  0
   14.9317   -1.9732    2.1111 O   0  0  0  0  0  0  0  0  0  0  0  0
   14.9552   -0.8129   -0.2134 C   0  0  0  0  0  0  0  0  0  0  0  0
   14.4070    0.4386    0.4058 N   0  0  0  0  0  0  0  0  0  0  0  0
   14.0680    0.4662    1.8667 C   0  0  0  0  0  3  0  0  0  0  0  0
   14.3407    1.6989    2.6767 C   0  0  0  0  0  0  0  0  0  0  0  0
   13.4842    2.0198    3.8656 C   0  0  0  0  0  0  0  0  0  0  0  0
   12.3463    2.3672    2.9521 O   0  0  0  0  0  0  0  0  0  0  0  0
   14.6222    1.6724    4.7791 O   0  0  0  0  0  0  0  0  0  0  0  0
   12.6278    2.3407    5.0545 C   0  0  0  0  0  0  0  0  0  0  0  0
   11.1782    2.6772    4.8657 C   0  0  0  0  0  0  0  0  0  0  0  0
   10.5307    2.4799    3.5271 O   0  0  0  0  0  0  0  0  0  0  0  0
   10.3763    3.2112    6.0153 C   0  0  0  0  0  0  0  0  0  0  0  0
   10.2652    2.4190    7.2842 O   0  0  0  0  0  0  0  0  0  0  0  0
    9.6854    4.5373    5.8962 C   0  0  0  0  0  0  0  0  0  0  0  0
   10.6930    5.6472    5.9491 C   0  0  0  0  0  0  0  0  0  0  0  0
   10.7565    7.1449    5.8958 C   0  0  0  0  0  3  0  0  0  0  0  0
    9.8463    8.3295    5.7611 O   0  0  0  0  0  0  0  0  0  0  0  0
    8.3883    8.6469    5.6081 N   0  0  0  0  0  0  0  0  0  0  0  0
    7.0646    7.9483    5.5083 N   0  0  0  0  0  0  0  0  0  0  0  0
    6.3410    9.2565    5.3867 C   0  0  0  0  0  3  0  0  0  0  0  0
    4.8688    9.5005    5.2353 C   0  0  0  0  0  0  0  0  0  0  0  0
    4.4539   10.9387    5.1382 O   0  0  0  0  0  0  0  0  0  0  0  0
    3.7564    8.4963    5.1680 O   0  0  0  0  0  0  0  0  0  0  0  0
    3.8418    7.0002    5.2356 C   0  0  0  0  0  0  0  0  0  0  0  0
    5.0604    6.1389    5.3872 C   0  0  0  0  0  0  0  0  0  0  0  0
    4.8118    4.6600    5.4220 O   0  0  0  0  0  0  0  0  0  0  0  0
    6.4947    6.5608    5.5086 C   0  0  0  0  0  0  0  0  0  0  0  0
    6.9452    5.1335    5.6086 C   0  0  0  0  0  0  0  0  0  0  0  0
    8.2054    4.3344    5.7617 C   0  0  0  0  0  0  0  0  0  0  0  0
    7.0767    3.3488    5.6921 C   0  0  0  0  0  2  0  0  0  0  0  0
    8.8180    2.9699    5.8749 C   0  0  0  0  0  0  0  0  0  0  0  0
    8.3829    2.0407    6.9691 C   0  0  0  0  0  0  0  0  0  0  0  0
    8.7921    0.5981    6.9348 O   0  0  0  0  0  0  0  0  0  0  0  0
    7.5386    2.5543    8.0976 C   0  0  0  0  0  3  0  0  0  0  0  0
    7.1035    1.6252    9.1918 C   0  0  0  0  0  0  0  0  0  0  0  0
    7.5128    0.1825    9.1576 C   0  0  0  0  0  0  0  0  0  0  0  0
    8.3570   -0.3311    8.0291 C   0  0  0  0  0  0  0  0  0  0  0  0
    8.7662   -1.7738    7.9950 C   0  0  0  0  0  0  0  0  0  0  0  0
    9.0919   -2.4914    9.2713 O   0  0  0  0  0  0  0  0  0  0  0  0
    8.3091   -3.7076    9.6688 N   0  0  0  0  0  0  0  0  0  0  0  0
    6.8844   -3.8604    9.2257 C   0  0  0  0  0  0  0  0  0  0  0  0
    5.8767   -2.8011    9.5612 O   0  0  0  0  0  0  0  0  0  0  0  0
    6.4670   -5.0726    8.4469 C   0  0  0  0  0  3  0  0  0  0  0  0
    6.3444   -6.4002    9.1343 C   0  0  0  0  0  0  0  0  0  0  0  0
    5.7191   -7.5606    8.4186 C   0  0  0  0  0  0  0  0  0  0  0  0
    6.5836   -8.6526    7.8618 C   0  0  0  0  0  0  0  0  0  0  0  0
    6.3931   -9.1122    6.4468 O   0  0  0  0  0  0  0  0  0  0  0  0
    7.6387   -9.2850    8.7202 C   0  0  0  0  0  3  0  0  0  0  0  0
    8.0915  -10.6875    8.4410 C   0  0  0  0  0  0  0  0  0  0  0  0
    8.1572  -11.1871    7.0281 O   0  0  0  0  0  0  0  0  0  0  0  0
    8.4784  -11.5904    9.5745 C   0  0  0  0  0  0  0  0  0  0  0  0
    9.2395  -11.0412   10.7446 C   0  0  0  0  0  0  0  0  0  0  0  0
    8.5008  -10.4801   11.9232 N   0  0  0  0  0  0  0  0  0  0  0  0
   10.7395  -11.0531   10.7360 C   0  0  0  0  0  3  0  0  0  0  0  0
   11.4912  -10.1629    9.7913 C   0  0  0  0  0  0  0  0  0  0  0  0
   12.6945  -10.6864    9.0647 C   0  0  0  0  0  0  0  0  0  0  0  0
   13.2264   -9.9530    7.8691 C   0  0  0  0  0  0  0  0  0  0  0  0
   13.8736  -10.7133    6.7497 O   0  0  0  0  0  0  0  0  0  0  0  0
   13.1110   -8.4594    7.7929 O   0  0  0  0  0  0  0  0  0  0  0  0
   12.0780   -7.8313    6.9051 C   0  0  0  0  0  0  0  0  0  0  0  0
   12.0483   -8.1580    5.4414 F   0  0  0  0  0  0  0  0  0  0  0  0
  2  1  1  0
  2  3  1  0
  3  4  1  0
  4  5  1  0
  4  6  1  0
  6  7  1  0
  6  8  1  0
  8  9  1  0
  8 10  1  0
 10 11  1  0
 11 12  1  0
 12 13  1  0
 13 14  1  0
 14 15  1  0
 14 16  1  0
 14 17  1  0
 17 18  1  0
 18 19  1  0
 18 20  1  0
 20 21  1  0
 20 22  1  0
 22 23  1  0
 23 24  1  0
 24 25  1  0
 25 26  1  0
 26 27  1  0
 27 28  1  0
 28 29  1  0
 29 30  1  0
 29 31  1  0
 31 32  1  0
 32 33  1  0
 33 34  1  0
 33 35  1  0
 35 36  1  0
 36 37  1  0
 37 38  1  0
 37 39  1  0
 39 40  1  0
 40 41  1  0
 40 42  1  0
 42 43  1  0
 43 44  1  0
 44 45  1  0
 45 46  1  0
 46 47  1  0
 47 48  1  0
 48 49  1  0
 49 50  1  0
 49 51  1  0
 51 52  1  0
 52 53  1  0
 53 54  1  0
 54 55  1  0
 54 56  1  0
 56 57  1  0
 57 58  1  0
 57 59  1  0
 59 60  1  0
 60 61  1  0
 60 62  1  0
 62 63  1  0
 63 64  1  0
 64 65  1  0
 65 66  1  0
 65 67  1  0
 67 68  1  0
 68 69  1  0
 10  2  1  0
 37 22  1  0
 35 27  1  0
 45 41  1  0
M  RAD  8  12   2  24   2  28   2  38   3  42   2  51   2  56   2  62   2
M  END
>  <docking_score>  (1) 
94.939999999999998

$$$$
