
     RDKit          3D

 12 12  0  0  0  0  0  0  0  0999 V2000
   13.4049    0.0871   -4.7198 O   0  0  0  0  0  0  0  0  0  0  0  0
   14.5433    0.0794   -5.5048 C   0  0  0  0  0  0  0  0  0  0  0  0
   15.5663   -0.9284   -5.0132 C   0  0  1  0  0  0  0  0  0  0  0  0
   15.1037   -1.4633   -3.7561 N   0  0  0  0  0  0  0  0  0  0  0  0
   16.0019   -2.4403   -3.2110 C   0  0  0  0  0  0  0  0  0  0  0  0
   16.2259   -3.5678   -4.1834 C   0  0  2  0  0  0  0  0  0  0  0  0
   17.5655   -3.7819   -4.4125 O   0  0  0  0  0  0  0  0  0  0  0  0
   15.4635   -3.3348   -5.4518 C   0  0  1  0  0  0  0  0  0  0  0  0
   14.1062   -3.4367   -5.1858 O   0  0  0  0  0  0  0  0  0  0  0  0
   15.8163   -1.9890   -6.0543 C   0  0  1  0  0  0  0  0  0  0  0  0
   14.9283   -1.7798   -7.1158 O   0  0  0  0  0  0  0  0  0  0  0  0
   15.3734   -2.3435   -8.2562 N   0  0  0  0  0  0  0  0  0  0  0  0
  1  2  1  0
  3  2  1  6
  3  4  1  0
  4  5  1  0
  5  6  1  0
  6  7  1  6
  6  8  1  0
  8  9  1  1
  8 10  1  0
 10 11  1  6
 11 12  1  0
 10  3  1  0
M  END
>  <docking_score>  (1) 
-3.4950000000000001

$$$$

     RDKit          3D

 12 12  0  0  0  0  0  0  0  0999 V2000
   16.2255   -1.7436   -2.1882 O   0  0  0  0  0  0  0  0  0  0  0  0
   16.7050   -2.4410   -3.2818 C   0  0  0  0  0  0  0  0  0  0  0  0
   15.7344   -3.5128   -3.7431 C   0  0  1  0  0  0  0  0  0  0  0  0
   15.2634   -3.1578   -5.0593 N   0  0  0  0  0  0  0  0  0  0  0  0
   14.3431   -4.1210   -5.5918 C   0  0  0  0  0  0  0  0  0  0  0  0
   14.9634   -5.4923   -5.6345 C   0  0  2  0  0  0  0  0  0  0  0  0
   14.1753   -6.4258   -5.0016 O   0  0  0  0  0  0  0  0  0  0  0  0
   16.3576   -5.4620   -5.0870 C   0  0  1  0  0  0  0  0  0  0  0  0
   17.1658   -4.7428   -5.9547 O   0  0  0  0  0  0  0  0  0  0  0  0
   16.3760   -4.8754   -3.6890 C   0  0  1  0  0  0  0  0  0  0  0  0
   17.7218   -4.7133   -3.3400 O   0  0  0  0  0  0  0  0  0  0  0  0
   18.2443   -5.8461   -2.8301 N   0  0  0  0  0  0  0  0  0  0  0  0
  1  2  1  0
  3  2  1  6
  3  4  1  0
  4  5  1  0
  5  6  1  0
  6  7  1  1
  6  8  1  0
  8  9  1  6
  8 10  1  0
 10 11  1  6
 11 12  1  0
 10  3  1  0
M  END
>  <docking_score>  (2) 
-3.3159999999999998

$$$$

     RDKit          3D

 12 12  0  0  0  0  0  0  0  0999 V2000
   14.6986   -1.3786   -3.9007 O   0  0  0  0  0  0  0  0  0  0  0  0
   15.1330   -2.5918   -4.4023 C   0  0  0  0  0  0  0  0  0  0  0  0
   16.5666   -2.8914   -4.0039 C   0  0  1  0  0  0  0  0  0  0  0  0
   16.8155   -2.2787   -2.7221 N   0  0  0  0  0  0  0  0  0  0  0  0
   18.1492   -2.5158   -2.2496 C   0  0  0  0  0  0  0  0  0  0  0  0
   18.4359   -3.9914   -2.1638 C   0  0  2  0  0  0  0  0  0  0  0  0
   19.5832   -4.3260   -2.8455 O   0  0  0  0  0  0  0  0  0  0  0  0
   17.2526   -4.7899   -2.6185 C   0  0  1  0  0  0  0  0  0  0  0  0
   16.2247   -4.6327   -1.7009 O   0  0  0  0  0  0  0  0  0  0  0  0
   16.8258   -4.3760   -4.0133 C   0  0  1  0  0  0  0  0  0  0  0  0
   15.6165   -5.0310   -4.2733 O   0  0  0  0  0  0  0  0  0  0  0  0
   15.7971   -6.3524   -4.4671 N   0  0  0  0  0  0  0  0  0  0  0  0
  1  2  1  0
  3  2  1  1
  3  4  1  0
  4  5  1  0
  5  6  1  0
  6  7  1  6
  6  8  1  0
  8  9  1  1
  8 10  1  0
 10 11  1  1
 11 12  1  0
 10  3  1  0
M  END
>  <docking_score>  (3) 
-3.306

$$$$
