
     RDKit          3D

 21 23  0  0  0  0  0  0  0  0999 V2000
   16.6271   -5.8420   -7.1944 C   0  0  0  0  0  0  0  0  0  0  0  0
   15.1476   -5.5842   -7.1622 C   0  0  2  0  0  0  0  0  0  0  0  0
   14.7328   -4.4125   -8.0090 C   0  0  0  0  0  0  0  0  0  0  0  0
   15.3580   -3.1105   -7.5389 C   0  0  2  0  0  0  0  0  0  0  0  0
   16.7951   -3.3220   -7.1540 C   0  0  0  0  0  0  0  0  0  0  0  0
   16.4474   -3.1636   -5.9126 C   0  0  0  0  0  0  0  0  0  0  0  0
   17.2727   -3.2597   -4.7048 C   0  0  0  0  0  0  0  0  0  0  0  0
   15.0059   -2.8662   -6.0993 C   0  0  1  0  0  0  0  0  0  0  0  0
   14.7698   -1.4482   -5.6974 C   0  0  0  0  0  3  0  0  0  0  0  0
   14.5886   -5.5347   -5.7701 C   0  0  0  0  0  0  0  0  0  0  0  0
   15.0291   -6.7903   -5.0458 C   0  0  0  0  0  0  0  0  0  0  0  0
   16.5067   -6.9253   -5.0783 C   0  0  0  0  0  0  0  0  0  0  0  0
   17.2870   -6.3276   -4.1840 C   0  0  0  0  0  0  0  0  0  0  0  0
   16.6440   -5.5042   -3.1280 C   0  0  0  0  0  3  0  0  0  0  0  0
   17.5674   -4.7133   -2.4489 O   0  0  0  0  0  0  0  0  0  0  0  0
   16.9995   -3.4566   -2.2190 C   0  0  0  0  0  3  0  0  0  0  0  0
   16.4192   -2.9757   -3.5078 C   0  0  1  0  0  0  0  0  0  0  0  0
   15.9103   -1.5644   -3.4627 C   0  0  2  0  0  0  0  0  0  0  0  0
   15.6777   -1.1635   -2.0192 C   0  0  0  0  0  2  0  0  0  0  0  0
   14.5987   -1.3950   -4.1945 C   0  0  1  0  0  0  0  0  0  0  0  0
   14.0813   -0.1528   -3.8589 O   0  0  0  0  0  0  0  0  0  0  0  0
  2  1  1  1
  2  3  1  0
  4  3  1  1
  4  5  1  0
  5  6  2  0
  6  7  1  0
  6  8  1  0
  8  9  1  6
  2 10  1  0
 10 11  1  0
 11 12  1  0
 12 13  2  3
 13 14  1  0
 14 15  1  0
 15 16  1  0
 17 16  1  1
 17 18  1  0
 18 19  1  1
 18 20  1  0
 20 21  1  6
  8  4  1  0
 17  7  1  0
 20  9  1  0
M  RAD  4   9   2  14   2  16   2  19   3
M  END
>  <docking_score>  (1) 
-6.5590000000000002

$$$$

     RDKit          3D

 21 23  0  0  0  0  0  0  0  0999 V2000
   14.4331   -4.8496   -6.2499 C   0  0  0  0  0  0  0  0  0  0  0  0
   15.7205   -4.9348   -7.0192 C   0  0  2  0  0  0  0  0  0  0  0  0
   16.3300   -6.3096   -7.0019 C   0  0  0  0  0  0  0  0  0  0  0  0
   16.6929   -6.7625   -5.5982 C   0  0  2  0  0  0  0  0  0  0  0  0
   15.6171   -6.3762   -4.6227 C   0  0  0  0  0  0  0  0  0  0  0  0
   16.4285   -5.4857   -4.1373 C   0  0  0  0  0  0  0  0  0  0  0  0
   16.1904   -4.5031   -3.0758 C   0  0  0  0  0  0  0  0  0  0  0  0
   17.6255   -5.7688   -4.9668 C   0  0  1  0  0  0  0  0  0  0  0  0
   18.6880   -6.3187   -4.0742 C   0  0  0  0  0  3  0  0  0  0  0  0
   16.6949   -3.8516   -6.6586 C   0  0  0  0  0  0  0  0  0  0  0  0
   15.9767   -2.5224   -6.7699 C   0  0  0  0  0  0  0  0  0  0  0  0
   14.7540   -2.5130   -5.9287 C   0  0  0  0  0  0  0  0  0  0  0  0
   14.7918   -2.2031   -4.6370 C   0  0  0  0  0  0  0  0  0  0  0  0
   16.1051   -1.8586   -4.0344 C   0  0  0  0  0  3  0  0  0  0  0  0
   16.0519   -1.8418   -2.6429 O   0  0  0  0  0  0  0  0  0  0  0  0
   17.2236   -2.4168   -2.1416 C   0  0  0  0  0  3  0  0  0  0  0  0
   17.4406   -3.7083   -2.8584 C   0  0  1  0  0  0  0  0  0  0  0  0
   18.5777   -4.5259   -2.3186 C   0  0  2  0  0  0  0  0  0  0  0  0
   19.5003   -3.6295   -1.5163 C   0  0  0  0  0  2  0  0  0  0  0  0
   19.4060   -5.1633   -3.4106 C   0  0  1  0  0  0  0  0  0  0  0  0
   20.5704   -5.6478   -2.8338 O   0  0  0  0  0  0  0  0  0  0  0  0
  2  1  1  1
  2  3  1  0
  4  3  1  6
  4  5  1  0
  5  6  2  0
  6  7  1  0
  6  8  1  0
  8  9  1  1
  2 10  1  0
 10 11  1  0
 11 12  1  0
 12 13  2  3
 13 14  1  0
 14 15  1  0
 15 16  1  0
 17 16  1  1
 17 18  1  0
 18 19  1  6
 18 20  1  0
 20 21  1  1
  8  4  1  0
 17  7  1  0
 20  9  1  0
M  RAD  4   9   2  14   2  16   2  19   3
M  END
>  <docking_score>  (2) 
-6.4429999999999996

$$$$

     RDKit          3D

 21 23  0  0  0  0  0  0  0  0999 V2000
   15.0958   -1.9193   -4.8315 C   0  0  0  0  0  0  0  0  0  0  0  0
   15.9464   -1.8623   -6.0682 C   0  0  2  0  0  0  0  0  0  0  0  0
   15.2598   -2.4201   -7.2846 C   0  0  0  0  0  0  0  0  0  0  0  0
   14.9117   -3.8902   -7.1275 C   0  0  2  0  0  0  0  0  0  0  0  0
   14.3909   -4.1662   -5.7452 C   0  0  0  0  0  0  0  0  0  0  0  0
   15.5010   -4.7914   -5.4920 C   0  0  0  0  0  0  0  0  0  0  0  0
   15.9430   -5.4145   -4.2408 C   0  0  0  0  0  0  0  0  0  0  0  0
   16.1528   -4.6782   -6.8199 C   0  0  1  0  0  0  0  0  0  0  0  0
   16.2425   -6.0464   -7.4098 C   0  0  0  0  0  3  0  0  0  0  0  0
   17.3252   -2.4178   -5.8609 C   0  0  0  0  0  0  0  0  0  0  0  0
   17.9246   -1.7371   -4.6474 C   0  0  0  0  0  0  0  0  0  0  0  0
   17.0440   -1.9006   -3.4640 C   0  0  0  0  0  0  0  0  0  0  0  0
   17.1012   -2.9786   -2.6889 C   0  0  0  0  0  0  0  0  0  0  0  0
   18.0811   -4.0407   -3.0323 C   0  0  0  0  0  3  0  0  0  0  0  0
   17.8404   -5.2191   -2.3301 O   0  0  0  0  0  0  0  0  0  0  0  0
   18.0403   -6.3032   -3.1900 C   0  0  0  0  0  3  0  0  0  0  0  0
   17.2924   -6.0280   -4.4525 C   0  0  1  0  0  0  0  0  0  0  0  0
   17.2778   -7.1757   -5.4196 C   0  0  2  0  0  0  0  0  0  0  0  0
   18.4105   -8.1258   -5.0838 C   0  0  0  0  0  2  0  0  0  0  0  0
   17.4708   -6.7326   -6.8517 C   0  0  1  0  0  0  0  0  0  0  0  0
   17.7240   -7.8616   -7.6162 O   0  0  0  0  0  0  0  0  0  0  0  0
  2  1  1  1
  2  3  1  0
  4  3  1  1
  4  5  1  0
  5  6  2  0
  6  7  1  0
  6  8  1  0
  8  9  1  6
  2 10  1  0
 10 11  1  0
 11 12  1  0
 12 13  2  3
 13 14  1  0
 14 15  1  0
 15 16  1  0
 17 16  1  1
 17 18  1  0
 18 19  1  1
 18 20  1  0
 20 21  1  6
  8  4  1  0
 17  7  1  0
 20  9  1  0
M  RAD  4   9   2  14   2  16   2  19   3
M  END
>  <docking_score>  (3) 
-5.835

$$$$
