
     RDKit          3D

 23 24  0  0  0  0  0  0  0  0999 V2000
   18.1561   -2.0671   -5.6089 C   0  0  0  0  0  0  0  0  0  0  0  0
   18.6116   -0.7536   -5.3217 O   0  0  0  0  0  0  0  0  0  0  0  0
   19.4205   -0.4782   -4.2125 C   0  0  0  0  0  0  0  0  0  0  0  0
   20.1639    0.6968   -4.2095 C   0  0  0  0  0  0  0  0  0  0  0  0
   20.9830    1.0336   -3.1504 C   0  0  0  0  0  0  0  0  0  0  0  0
   21.0704    0.1871   -2.0644 C   0  0  0  0  0  0  0  0  0  0  0  0
   20.3294   -0.9773   -2.0747 C   0  0  0  0  0  0  0  0  0  0  0  0
   19.5020   -1.3306   -3.1305 C   0  0  0  0  0  0  0  0  0  0  0  0
   18.7142   -2.6068   -3.0993 C   0  0  0  0  0  0  0  0  0  0  0  0
   17.3192   -2.3194   -2.5460 C   0  0  0  0  0  0  0  0  0  0  0  0
   16.3136   -3.2475   -3.1245 C   0  0  0  0  0  0  0  0  0  0  0  0
   16.2627   -4.6308   -2.5700 C   0  0  0  0  0  0  0  0  0  0  0  0
   15.5281   -2.8078   -4.0851 C   0  0  0  0  0  0  0  0  0  0  0  0
   15.5368   -1.4635   -4.6638 C   0  0  2  0  0  0  0  0  0  0  0  0
   14.4792   -0.5483   -4.1649 C   0  0  0  0  0  0  0  0  0  0  0  0
   15.7015   -1.4474   -6.1599 C   0  0  0  0  0  0  0  0  0  0  0  0
   17.0391   -1.9517   -6.5780 C   0  0  0  0  0  0  0  0  0  0  0  0
   17.2425   -2.3039   -7.8301 C   0  0  0  0  0  0  0  0  0  0  0  0
   18.5802   -2.8034   -8.2281 C   0  0  0  0  0  0  0  0  0  0  0  0
   18.4357   -4.2435   -8.7218 C   0  0  0  0  0  0  0  0  0  0  0  0
   19.0983   -5.1134   -7.6457 C   0  0  0  0  0  0  0  0  0  0  0  0
   17.9593   -5.7157   -6.8428 C   0  0  0  0  0  0  0  0  0  0  0  0
   18.3028   -5.7433   -5.3689 C   0  0  0  0  0  0  0  0  0  0  0  0
  1  2  1  0
  2  3  1  0
  3  4  2  0
  4  5  1  0
  5  6  2  0
  6  7  1  0
  7  8  2  0
  8  9  1  0
  9 10  1  0
 10 11  1  0
 11 12  1  0
 11 13  2  3
 13 14  1  0
 14 15  1  6
 14 16  1  0
 16 17  1  0
 17 18  2  3
 18 19  1  0
 19 20  1  0
 20 21  1  0
 21 22  1  0
 22 23  1  0
 17  1  1  0
  8  3  1  0
M  END
>  <docking_score>  (1) 
-5.2880000000000003

$$$$

     RDKit          3D

 23 24  0  0  0  0  0  0  0  0999 V2000
   16.2730   -4.7094   -4.3173 C   0  0  0  0  0  0  0  0  0  0  0  0
   17.6819   -4.8756   -4.2644 O   0  0  0  0  0  0  0  0  0  0  0  0
   18.4526   -4.3251   -3.2332 C   0  0  0  0  0  0  0  0  0  0  0  0
   19.7182   -4.8506   -2.9983 C   0  0  0  0  0  0  0  0  0  0  0  0
   20.5336   -4.3582   -1.9990 C   0  0  0  0  0  0  0  0  0  0  0  0
   20.0872   -3.3181   -1.2100 C   0  0  0  0  0  0  0  0  0  0  0  0
   18.8298   -2.8017   -1.4492 C   0  0  0  0  0  0  0  0  0  0  0  0
   17.9981   -3.2848   -2.4488 C   0  0  0  0  0  0  0  0  0  0  0  0
   16.6381   -2.6929   -2.6736 C   0  0  0  0  0  0  0  0  0  0  0  0
   16.7358   -1.6100   -3.7471 C   0  0  0  0  0  0  0  0  0  0  0  0
   15.4688   -1.5040   -4.5157 C   0  0  0  0  0  0  0  0  0  0  0  0
   14.3370   -0.7795   -3.8694 C   0  0  0  0  0  0  0  0  0  0  0  0
   15.4097   -2.0479   -5.7131 C   0  0  0  0  0  0  0  0  0  0  0  0
   16.4884   -2.7679   -6.3915 C   0  0  2  0  0  0  0  0  0  0  0  0
   17.2318   -1.9870   -7.4125 C   0  0  0  0  0  0  0  0  0  0  0  0
   16.1052   -4.1520   -6.8419 C   0  0  0  0  0  0  0  0  0  0  0  0
   15.8324   -5.0565   -5.6904 C   0  0  0  0  0  0  0  0  0  0  0  0
   15.1885   -6.1879   -5.8865 C   0  0  0  0  0  0  0  0  0  0  0  0
   14.9260   -7.0755   -4.7286 C   0  0  0  0  0  0  0  0  0  0  0  0
   15.5310   -8.4492   -5.0205 C   0  0  0  0  0  0  0  0  0  0  0  0
   17.0444   -8.2172   -5.1189 C   0  0  0  0  0  0  0  0  0  0  0  0
   17.5185   -9.0723   -6.2803 C   0  0  0  0  0  0  0  0  0  0  0  0
   17.8431   -8.2085   -7.4801 C   0  0  0  0  0  0  0  0  0  0  0  0
  1  2  1  0
  2  3  1  0
  3  4  2  0
  4  5  1  0
  5  6  2  0
  6  7  1  0
  7  8  2  0
  8  9  1  0
  9 10  1  0
 10 11  1  0
 11 12  1  0
 11 13  2  3
 13 14  1  0
 14 15  1  6
 14 16  1  0
 16 17  1  0
 17 18  2  3
 18 19  1  0
 19 20  1  0
 20 21  1  0
 21 22  1  0
 22 23  1  0
 17  1  1  0
  8  3  1  0
M  END
>  <docking_score>  (2) 
-4.8070000000000004

$$$$

     RDKit          3D

 23 24  0  0  0  0  0  0  0  0999 V2000
   17.7455   -3.3650   -4.0838 C   0  0  0  0  0  0  0  0  0  0  0  0
   16.7112   -2.6307   -3.4463 O   0  0  0  0  0  0  0  0  0  0  0  0
   15.9102   -1.7215   -4.1478 C   0  0  0  0  0  0  0  0  0  0  0  0
   14.6844   -1.3586   -3.6012 C   0  0  0  0  0  0  0  0  0  0  0  0
   13.8425   -0.4678   -4.2365 C   0  0  0  0  0  0  0  0  0  0  0  0
   14.2214    0.0799   -5.4449 C   0  0  0  0  0  0  0  0  0  0  0  0
   15.4396   -0.2852   -5.9812 C   0  0  0  0  0  0  0  0  0  0  0  0
   16.2970   -1.1786   -5.3560 C   0  0  0  0  0  0  0  0  0  0  0  0
   17.6126   -1.5472   -5.9757 C   0  0  0  0  0  0  0  0  0  0  0  0
   18.7020   -0.6340   -5.4153 C   0  0  0  0  0  0  0  0  0  0  0  0
   20.0142   -1.3297   -5.3766 C   0  0  0  0  0  0  0  0  0  0  0  0
   20.7600   -1.4522   -6.6620 C   0  0  0  0  0  0  0  0  0  0  0  0
   20.4470   -1.7968   -4.2244 C   0  0  0  0  0  0  0  0  0  0  0  0
   19.7562   -1.7033   -2.9375 C   0  0  2  0  0  0  0  0  0  0  0  0
   20.2408   -0.6319   -2.0307 C   0  0  0  0  0  0  0  0  0  0  0  0
   19.5542   -3.0317   -2.2589 C   0  0  0  0  0  0  0  0  0  0  0  0
   18.6262   -3.9114   -3.0227 C   0  0  0  0  0  0  0  0  0  0  0  0
   18.5805   -5.2000   -2.7571 C   0  0  0  0  0  0  0  0  0  0  0  0
   17.6508   -6.0601   -3.5275 C   0  0  0  0  0  0  0  0  0  0  0  0
   18.3936   -6.6132   -4.7443 C   0  0  0  0  0  0  0  0  0  0  0  0
   18.6588   -8.0903   -4.4252 C   0  0  0  0  0  0  0  0  0  0  0  0
   17.7062   -8.8800   -5.3047 C   0  0  0  0  0  0  0  0  0  0  0  0
   17.6219   -8.2652   -6.6853 C   0  0  0  0  0  0  0  0  0  0  0  0
  1  2  1  0
  2  3  1  0
  3  4  2  0
  4  5  1  0
  5  6  2  0
  6  7  1  0
  7  8  2  0
  8  9  1  0
  9 10  1  0
 10 11  1  0
 11 12  1  0
 11 13  2  3
 13 14  1  0
 14 15  1  1
 14 16  1  0
 16 17  1  0
 17 18  2  3
 18 19  1  0
 19 20  1  0
 20 21  1  0
 21 22  1  0
 22 23  1  0
 17  1  1  0
  8  3  1  0
M  END
>  <docking_score>  (3) 
-4.7469999999999999

$$$$
