
     RDKit          3D

 19 19  0  0  0  0  0  0  0  0999 V2000
   16.3592   -4.9553   -2.9358 C   0  0  0  0  0  0  0  0  0  0  0  0
   16.1069   -4.0372   -3.8561 C   0  0  0  0  0  0  0  0  0  0  0  0
   14.9747   -4.3095   -4.7936 C   0  0  0  0  0  0  0  0  0  0  0  0
   15.3933   -4.1484   -6.2343 C   0  0  0  0  0  0  0  0  0  0  0  0
   16.6117   -3.2658   -6.3815 C   0  0  1  0  0  0  0  0  0  0  0  0
   16.7074   -2.6614   -7.7606 C   0  0  0  0  0  0  0  0  0  0  0  0
   16.4789   -2.1624   -5.3229 C   0  0  0  0  0  0  0  0  0  0  0  0
   14.9813   -1.8324   -5.2835 C   0  0  0  0  0  0  0  0  0  0  0  0
   17.2932   -0.9544   -5.6711 C   0  0  0  0  0  0  0  0  0  0  0  0
   16.8548   -2.7888   -4.0139 C   0  0  1  0  0  0  0  0  0  0  0  0
   16.7957   -1.8557   -2.8552 C   0  0  0  0  0  3  0  0  0  0  0  0
   18.0925   -1.6473   -2.1555 C   0  0  0  0  0  0  0  0  0  0  0  0
   19.1577   -2.4779   -2.8363 C   0  0  0  0  0  0  0  0  0  0  0  0
   20.1702   -1.6776   -3.5300 C   0  0  0  0  0  0  0  0  0  0  0  0
   20.9040   -2.3113   -4.5737 N   0  0  0  0  0  0  0  0  0  0  0  0
   20.2993   -3.3773   -5.3204 C   0  0  0  0  0  0  0  0  0  0  0  0
   20.4025   -0.4496   -3.2235 C   0  0  0  0  0  0  0  0  0  0  0  0
   20.8530    0.7285   -2.9352 C   0  0  0  0  0  0  0  0  0  0  0  0
   21.2787    1.8124   -2.5113 O   0  0  0  0  0  0  0  0  0  0  0  0
  1  2  2  0
  2  3  1  0
  3  4  1  0
  4  5  1  0
  5  6  1  6
  5  7  1  0
  7  8  1  0
  7  9  1  0
  7 10  1  0
 10 11  1  1
 11 12  1  0
 12 13  1  0
 13 14  1  0
 14 15  1  0
 15 16  1  0
 14 17  2  0
 17 18  2  0
 18 19  2  0
 10  2  1  0
M  RAD  1  11   2
M  END
>  <docking_score>  (1) 
-4.0650000000000004

$$$$

     RDKit          3D

 19 19  0  0  0  0  0  0  0  0999 V2000
   15.0712   -7.1702   -4.6234 C   0  0  0  0  0  0  0  0  0  0  0  0
   16.2724   -7.1963   -5.1802 C   0  0  0  0  0  0  0  0  0  0  0  0
   16.8190   -8.5373   -5.5517 C   0  0  0  0  0  0  0  0  0  0  0  0
   18.2085   -8.7445   -5.0013 C   0  0  0  0  0  0  0  0  0  0  0  0
   18.9070   -7.4377   -4.7024 C   0  0  1  0  0  0  0  0  0  0  0  0
   20.4080   -7.5900   -4.6897 C   0  0  0  0  0  0  0  0  0  0  0  0
   18.4792   -6.4555   -5.8014 C   0  0  0  0  0  0  0  0  0  0  0  0
   18.4053   -7.3015   -7.0789 C   0  0  0  0  0  0  0  0  0  0  0  0
   19.4532   -5.3274   -5.9516 C   0  0  0  0  0  0  0  0  0  0  0  0
   17.0902   -6.0131   -5.4520 C   0  0  1  0  0  0  0  0  0  0  0  0
   16.5048   -5.0363   -6.4112 C   0  0  0  0  0  3  0  0  0  0  0  0
   15.8559   -3.8549   -5.7801 C   0  0  0  0  0  0  0  0  0  0  0  0
   16.7717   -3.3043   -4.7096 C   0  0  0  0  0  0  0  0  0  0  0  0
   16.0690   -2.5476   -3.6700 C   0  0  0  0  0  0  0  0  0  0  0  0
   16.3297   -2.8993   -2.3144 N   0  0  0  0  0  0  0  0  0  0  0  0
   17.0972   -4.0761   -2.0214 C   0  0  0  0  0  0  0  0  0  0  0  0
   15.2450   -1.5997   -3.9499 C   0  0  0  0  0  0  0  0  0  0  0  0
   14.2876   -0.7378   -4.0711 C   0  0  0  0  0  0  0  0  0  0  0  0
   13.3138   -0.0054   -4.2964 O   0  0  0  0  0  0  0  0  0  0  0  0
  1  2  2  0
  2  3  1  0
  3  4  1  0
  4  5  1  0
  5  6  1  6
  5  7  1  0
  7  8  1  0
  7  9  1  0
  7 10  1  0
 10 11  1  6
 11 12  1  0
 12 13  1  0
 13 14  1  0
 14 15  1  0
 15 16  1  0
 14 17  2  0
 17 18  2  0
 18 19  2  0
 10  2  1  0
M  RAD  1  11   2
M  END
>  <docking_score>  (2) 
-3.8980000000000001

$$$$

     RDKit          3D

 19 19  0  0  0  0  0  0  0  0999 V2000
   13.1705   -4.7603   -5.6282 C   0  0  0  0  0  0  0  0  0  0  0  0
   14.4438   -4.7829   -5.9911 C   0  0  0  0  0  0  0  0  0  0  0  0
   14.7406   -4.5591   -7.4392 C   0  0  0  0  0  0  0  0  0  0  0  0
   15.6368   -5.6372   -7.9972 C   0  0  0  0  0  0  0  0  0  0  0  0
   16.4333   -6.3350   -6.9185 C   0  0  1  0  0  0  0  0  0  0  0  0
   17.6787   -6.9857   -7.4682 C   0  0  0  0  0  0  0  0  0  0  0  0
   16.8032   -5.2599   -5.8876 C   0  0  0  0  0  0  0  0  0  0  0  0
   17.0953   -4.0028   -6.7169 C   0  0  0  0  0  0  0  0  0  0  0  0
   17.9913   -5.6587   -5.0672 C   0  0  0  0  0  0  0  0  0  0  0  0
   15.5659   -5.0101   -5.0790 C   0  0  1  0  0  0  0  0  0  0  0  0
   15.7366   -3.9909   -4.0071 C   0  0  0  0  0  3  0  0  0  0  0  0
   16.2067   -4.5308   -2.7023 C   0  0  0  0  0  0  0  0  0  0  0  0
   16.8505   -3.4139   -1.9112 C   0  0  0  0  0  0  0  0  0  0  0  0
   18.2370   -3.1438   -2.3007 C   0  0  0  0  0  0  0  0  0  0  0  0
   19.2601   -3.8721   -1.6284 N   0  0  0  0  0  0  0  0  0  0  0  0
   20.1725   -3.1800   -0.7634 C   0  0  0  0  0  0  0  0  0  0  0  0
   18.5391   -2.2865   -3.2116 C   0  0  0  0  0  0  0  0  0  0  0  0
   19.0060   -1.3611   -3.9859 C   0  0  0  0  0  0  0  0  0  0  0  0
   19.3495   -0.3810   -4.6620 O   0  0  0  0  0  0  0  0  0  0  0  0
  1  2  2  0
  2  3  1  0
  3  4  1  0
  4  5  1  0
  5  6  1  6
  5  7  1  0
  7  8  1  0
  7  9  1  0
  7 10  1  0
 10 11  1  1
 11 12  1  0
 12 13  1  0
 13 14  1  0
 14 15  1  0
 15 16  1  0
 14 17  2  0
 17 18  2  0
 18 19  2  0
 10  2  1  0
M  RAD  1  11   2
M  END
>  <docking_score>  (3) 
-3.7869999999999999

$$$$
