
     RDKit          3D

 66 71  0  0  0  0  0  0  0  0999 V2000
   15.2135   -4.1161    0.7076 C   0  0  0  0  0  0  0  0  0  0  0  0
   15.2595   -5.2868    1.6756 C   0  0  1  0  0  0  0  0  0  0  0  0
   13.8571   -5.4893    2.2080 C   0  0  0  0  0  0  0  0  0  0  0  0
   15.6604   -6.5043    0.8676 C   0  0  0  0  0  0  0  0  0  0  0  0
   16.5135   -7.4749    1.6682 C   0  0  0  0  0  0  0  0  0  0  0  0
   17.8058   -7.7408    0.9629 C   0  0  0  0  0  0  0  0  0  0  0  0
   18.0271   -9.1832    0.6059 C   0  0  1  0  0  0  0  0  0  0  0  0
   16.7772  -10.0033    0.7348 C   0  0  0  0  0  0  0  0  0  0  0  0
   18.6716   -9.3706   -0.7422 C   0  0  0  0  0  3  0  0  0  0  0  0
   17.6851   -9.3657   -1.8837 C   0  0  0  0  0  3  0  0  0  0  0  0
   18.4864   -9.4028   -3.1903 C   0  0  0  0  0  0  0  0  0  0  0  0
   17.6867   -8.8634   -4.3574 C   0  0  2  0  0  0  0  0  0  0  0  0
   18.5151   -8.1884   -5.3838 C   0  0  0  0  0  0  0  0  0  0  0  0
   16.9236   -7.5940   -3.9382 C   0  0  1  0  0  0  0  0  0  0  0  0
   18.0790   -6.6555   -3.5117 C   0  0  1  0  0  0  0  0  0  0  0  0
   17.8269   -6.4905   -2.0643 N   0  0  0  0  0  0  0  0  0  0  0  0
   19.4502   -7.1972   -3.6637 C   0  0  0  0  0  0  0  0  0  0  0  0
   20.4791   -6.3551   -4.3309 C   0  0  1  0  0  0  0  0  0  0  0  0
   21.3706   -6.9359   -5.1723 O   0  0  0  0  0  0  0  0  0  0  0  0
   21.2912   -6.7055   -6.5147 C   0  0  0  0  0  0  0  0  0  0  0  0
   20.7158   -7.6572   -7.3108 O   0  0  0  0  0  0  0  0  0  0  0  0
   20.1145   -7.2548   -8.4605 C   0  0  0  0  0  0  0  0  0  0  0  0
   18.6778   -7.4444   -8.7020 C   0  0  0  0  0  0  0  0  0  0  0  0
   17.9411   -8.5229   -7.9776 C   0  0  0  0  0  0  0  0  0  0  0  0
   16.5059   -8.2159   -7.6553 C   0  0  2  0  0  0  0  0  0  0  0  0
   16.1363   -6.9094   -8.0419 O   0  0  0  0  0  0  0  0  0  0  0  0
   16.1025   -8.4812   -6.1927 C   0  0  0  0  0  0  0  0  0  0  0  0
   16.4359   -7.2504   -5.3475 C   0  0  2  0  0  0  0  0  0  0  0  0
   17.8517   -6.9907   -5.9402 C   0  0  1  0  0  0  0  0  0  0  0  0
   18.2407   -5.6421   -5.7247 C   0  0  0  0  0  0  0  0  0  0  0  0
   18.5699   -4.7112   -6.8139 C   0  0  0  0  0  0  0  0  0  0  0  0
   19.8963   -4.3750   -6.9103 O   0  0  0  0  0  0  0  0  0  0  0  0
   20.6101   -4.2845   -5.7634 C   0  0  0  0  0  0  0  0  0  0  0  0
   20.1664   -4.9382   -4.5509 C   0  0  2  0  0  0  0  0  0  0  0  0
   20.2055   -4.2000   -3.3857 O   0  0  0  0  0  0  0  0  0  0  0  0
   20.1845   -2.8338   -3.6070 C   0  0  1  0  0  0  0  0  0  0  0  0
   20.4796   -2.1459   -2.2926 C   0  0  0  0  0  0  0  0  0  0  0  0
   21.0988   -2.4344   -4.5808 F   0  0  0  0  0  0  0  0  0  0  0  0
   18.8279   -2.4594   -4.1427 C   0  0  0  0  0  0  0  0  0  0  0  0
   17.6865   -3.2218   -3.5617 C   0  0  0  0  0  0  0  0  0  0  0  0
   17.5384   -3.2064   -2.1064 C   0  0  2  0  0  0  0  0  0  0  0  0
   18.5454   -3.7480   -1.3793 F   0  0  0  0  0  0  0  0  0  0  0  0
   16.2044   -3.5648   -1.5367 C   0  0  2  0  0  0  0  0  0  0  0  0
   15.4818   -4.4755   -2.2447 O   0  0  0  0  0  0  0  0  0  0  0  0
   15.3859   -2.2856   -1.3077 C   0  0  0  0  0  0  0  0  0  0  0  0
   16.3044   -1.1191   -1.5608 C   0  0  1  0  0  0  0  0  0  0  0  0
   15.7114    0.1046   -1.4597 F   0  0  0  0  0  0  0  0  0  0  0  0
   17.5792   -1.2224   -0.7849 C   0  0  0  0  0  0  0  0  0  0  0  0
   18.5261   -0.0865   -0.9661 C   0  0  0  0  0  0  0  0  0  0  0  0
   19.1463   -0.0034   -2.3235 C   0  0  0  0  0  0  0  0  0  0  0  0
   20.4871   -0.6405   -2.4382 C   0  0  1  0  0  0  0  0  0  0  0  0
   21.3825   -0.0839   -1.3570 C   0  0  0  0  0  2  0  0  0  0  0  0
   21.0563   -0.2714   -3.6757 O   0  0  0  0  0  0  0  0  0  0  0  0
   16.4486   -4.1818   -0.1547 C   0  0  0  0  0  3  0  0  0  0  0  0
   15.5552   -6.1111   -5.4352 C   0  0  0  0  0  0  0  0  0  0  0  0
   14.8708   -5.7003   -4.1487 C   0  0  2  0  0  0  0  0  0  0  0  0
   13.5142   -5.4703   -4.4752 O   0  0  0  0  0  0  0  0  0  0  0  0
   15.4915   -4.4334   -3.5972 C   0  0  1  0  0  0  0  0  0  0  0  0
   14.8125   -3.1802   -4.1850 S   0  0  0  0  0  0  0  0  0  0  0  0
   14.2483   -2.1835   -4.6545 C   0  0  0  0  0  0  0  0  0  0  0  0
   13.4225   -0.7564   -5.3025 P   0  0  0  0  0  0  0  0  0  0  0  0
   12.0144   -1.1764   -6.2504 O   0  0  0  0  0  0  0  0  0  0  0  0
   12.2098   -2.7886   -6.8839 P   0  0  0  0  0  0  0  0  0  0  0  0
   13.8334   -3.2811   -6.4842 O   0  0  0  0  0  0  0  0  0  0  0  0
   14.5024   -3.4429   -7.6223 O   0  0  0  0  0  0  0  0  0  0  0  0
   13.7247   -4.1711   -8.5460 C   0  0  0  0  0  2  0  0  0  0  0  0
  1  2  1  0
  2  3  1  6
  2  4  1  0
  4  5  1  0
  5  6  1  0
  6  7  1  0
  7  8  1  6
  7  9  1  0
  9 10  1  0
 10 11  1  0
 12 11  1  1
 12 13  1  0
 14 12  1  6
 14 15  1  0
 15 16  1  1
 15 17  1  0
 17 18  1  0
 18 19  1  6
 19 20  1  0
 20 21  1  0
 21 22  1  0
 22 23  1  0
 23 24  1  0
 24 25  1  0
 25 26  1  1
 25 27  1  0
 28 27  1  6
 28 29  1  0
 29 30  1  1
 30 31  1  0
 31 32  1  0
 32 33  1  0
 34 33  1  6
 34 35  1  0
 35 36  1  0
 36 37  1  0
 36 38  1  6
 36 39  1  0
 39 40  1  0
 40 41  1  0
 41 42  1  1
 41 43  1  0
 43 44  1  0
 43 45  1  1
 45 46  1  0
 46 47  1  1
 46 48  1  0
 48 49  1  0
 49 50  1  0
 50 51  1  0
 51 52  1  1
 51 53  1  0
 43 54  1  0
 28 55  1  0
 55 56  1  0
 56 57  1  6
 56 58  1  0
 58 59  1  1
 59 60  3  0
 60 61  1  0
 61 62  1  0
 62 63  1  0
 63 64  1  0
 64 65  1  0
 65 66  1  0
 54  1  1  0
 29 13  1  0
 28 14  1  0
 34 18  1  0
 51 37  1  0
 58 44  1  0
M  RAD  5   9   2  10   2  52   3  54   2  66   3
M  END
>  <docking_score>  (1) 
89.188999999999993

$$$$
