
     RDKit          3D

 27 29  0  0  0  0  0  0  0  0999 V2000
    2.3388    6.8753    4.3553 C   0  0  0  0  0  0  0  0  0  0  0  0
    2.6760    7.6314    5.6044 C   0  0  0  0  0  0  0  0  0  0  0  0
    2.4454    7.1670    6.7541 O   0  0  0  0  0  0  0  0  0  0  0  0
    3.2659    8.8948    5.5480 O   0  0  0  0  0  0  0  0  0  0  0  0
    3.3948    9.5703    4.3251 C   0  0  0  0  0  3  0  0  0  0  0  0
    4.7953    9.6753    3.8624 C   0  0  0  0  0  0  0  0  0  0  0  0
    5.6583    9.0413    4.4661 O   0  0  0  0  0  0  0  0  0  0  0  0
    2.7090   10.9036    4.4358 C   0  0  0  0  0  0  0  0  0  0  0  0
    3.2783   11.7801    5.5092 C   0  0  0  0  0  0  0  0  0  0  0  0
    4.7869   11.8123    5.5116 C   0  0  0  0  0  3  0  0  0  0  0  0
    5.2410   13.2551    5.5496 C   0  0  1  0  0  0  0  0  0  0  0  0
    6.2826   13.3891    6.6021 C   0  0  0  0  0  0  0  0  0  0  0  0
    6.8937   14.7874    6.5263 C   0  0  2  0  0  0  0  0  0  0  0  0
    5.7108   15.7455    6.4009 C   0  0  0  0  0  0  0  0  0  0  0  0
    7.6106   14.8397    5.2268 C   0  0  0  0  0  0  0  0  0  0  0  0
    8.8343   15.3157    5.0630 C   0  0  0  0  0  0  0  0  0  0  0  0
    9.3862   15.2901    3.7126 C   0  0  0  0  0  0  0  0  0  0  0  0
   10.5918   14.9748    3.4612 O   0  0  0  0  0  0  0  0  0  0  0  0
    8.4633   15.6573    2.5974 C   0  0  0  0  0  0  0  0  0  0  0  0
    7.0141   15.4349    2.9719 C   0  0  0  0  0  0  0  0  0  0  0  0
    6.9316   14.3319    4.0267 C   0  0  1  0  0  0  0  0  0  0  0  0
    7.8026   13.1908    3.4804 C   0  0  0  0  0  0  0  0  0  0  0  0
    5.5630   13.8272    4.2327 C   0  0  1  0  0  0  0  0  0  0  0  0
    5.1765   12.9454    3.0659 C   0  0  0  0  0  0  0  0  0  0  0  0
    5.9824   11.6698    3.1862 C   0  0  0  0  0  0  0  0  0  0  0  0
    5.1088   10.5328    2.6982 C   0  0  0  0  0  3  0  0  0  0  0  0
    5.8779    9.7725    1.6262 C   0  0  0  0  0  0  0  0  0  0  0  0
  1  2  1  0
  2  3  2  0
  2  4  1  0
  5  4  1  0
  5  6  1  0
  6  7  2  0
  5  8  1  0
  8  9  1  0
  9 10  1  0
 11 10  1  6
 11 12  1  0
 12 13  1  0
 13 14  1  6
 13 15  1  0
 15 16  2  0
 16 17  1  0
 17 18  2  0
 17 19  1  0
 19 20  1  0
 20 21  1  0
 21 22  1  6
 21 23  1  0
 23 24  1  6
 24 25  1  0
 25 26  1  0
 26 27  1  0
 26  6  1  0
 23 11  1  0
 21 15  1  0
M  RAD  3   5   2  10   2  26   2
M  END
>  <docking_score>  (1) 
-5.2670000000000003

$$$$

     RDKit          3D

 27 29  0  0  0  0  0  0  0  0999 V2000
   18.5575   -8.5819   -8.7330 C   0  0  0  0  0  0  0  0  0  0  0  0
   18.3457   -8.9258   -7.2899 C   0  0  0  0  0  0  0  0  0  0  0  0
   17.7191   -9.9596   -6.9303 O   0  0  0  0  0  0  0  0  0  0  0  0
   18.8382   -8.1083   -6.2718 O   0  0  0  0  0  0  0  0  0  0  0  0
   18.0365   -7.7776   -5.1690 C   0  0  0  0  0  3  0  0  0  0  0  0
   16.7448   -7.1671   -5.5500 C   0  0  0  0  0  0  0  0  0  0  0  0
   16.4275   -7.1664   -6.7377 O   0  0  0  0  0  0  0  0  0  0  0  0
   18.8387   -6.9213   -4.2289 C   0  0  0  0  0  0  0  0  0  0  0  0
   19.3205   -5.6451   -4.8483 C   0  0  0  0  0  0  0  0  0  0  0  0
   18.2549   -4.9315   -5.6436 C   0  0  0  0  0  3  0  0  0  0  0  0
   18.2165   -3.4820   -5.2117 C   0  0  1  0  0  0  0  0  0  0  0  0
   18.2150   -2.6314   -6.4312 C   0  0  0  0  0  0  0  0  0  0  0  0
   17.9796   -1.1771   -6.0266 C   0  0  2  0  0  0  0  0  0  0  0  0
   18.9076   -0.9264   -4.8396 C   0  0  0  0  0  0  0  0  0  0  0  0
   16.5959   -1.1311   -5.4895 C   0  0  0  0  0  0  0  0  0  0  0  0
   15.6996   -0.2091   -5.8014 C   0  0  0  0  0  0  0  0  0  0  0  0
   14.3846   -0.3175   -5.1784 C   0  0  0  0  0  0  0  0  0  0  0  0
   13.2997   -0.1022   -5.8051 O   0  0  0  0  0  0  0  0  0  0  0  0
   14.3489   -0.7013   -3.7356 C   0  0  0  0  0  0  0  0  0  0  0  0
   15.5944   -1.4562   -3.3247 C   0  0  0  0  0  0  0  0  0  0  0  0
   16.1722   -2.1736   -4.5444 C   0  0  1  0  0  0  0  0  0  0  0  0
   14.9766   -2.8901   -5.1899 C   0  0  0  0  0  0  0  0  0  0  0  0
   17.1951   -3.1754   -4.1978 C   0  0  1  0  0  0  0  0  0  0  0  0
   16.5188   -4.3964   -3.6147 C   0  0  0  0  0  0  0  0  0  0  0  0
   15.7986   -5.0911   -4.7503 C   0  0  0  0  0  0  0  0  0  0  0  0
   15.8843   -6.5821   -4.4982 C   0  0  0  0  0  3  0  0  0  0  0  0
   14.4723   -7.1506   -4.5411 C   0  0  0  0  0  0  0  0  0  0  0  0
  1  2  1  0
  2  3  2  0
  2  4  1  0
  5  4  1  0
  5  6  1  0
  6  7  2  0
  5  8  1  0
  8  9  1  0
  9 10  1  0
 11 10  1  6
 11 12  1  0
 12 13  1  0
 13 14  1  1
 13 15  1  0
 15 16  2  0
 16 17  1  0
 17 18  2  0
 17 19  1  0
 19 20  1  0
 20 21  1  0
 21 22  1  6
 21 23  1  0
 23 24  1  6
 24 25  1  0
 25 26  1  0
 26 27  1  0
 26  6  1  0
 23 11  1  0
 21 15  1  0
M  RAD  3   5   2  10   2  26   2
M  END
>  <docking_score>  (2) 
-5.1719999999999997

$$$$

     RDKit          3D

 27 29  0  0  0  0  0  0  0  0999 V2000
   17.8583  -10.3726   -7.2128 C   0  0  0  0  0  0  0  0  0  0  0  0
   17.0089   -9.8404   -6.0988 C   0  0  0  0  0  0  0  0  0  0  0  0
   16.0890  -10.5224   -5.5703 O   0  0  0  0  0  0  0  0  0  0  0  0
   17.2017   -8.5540   -5.5934 O   0  0  0  0  0  0  0  0  0  0  0  0
   17.6976   -7.5298   -6.4141 C   0  0  0  0  0  3  0  0  0  0  0  0
   18.9443   -6.9234   -5.8999 C   0  0  0  0  0  0  0  0  0  0  0  0
   19.5034   -7.4595   -4.9453 O   0  0  0  0  0  0  0  0  0  0  0  0
   16.6041   -6.5240   -6.6443 C   0  0  0  0  0  0  0  0  0  0  0  0
   16.0941   -5.8978   -5.3825 C   0  0  0  0  0  0  0  0  0  0  0  0
   17.1958   -5.4709   -4.4438 C   0  0  0  0  0  3  0  0  0  0  0  0
   16.9419   -4.0420   -4.0162 C   0  0  1  0  0  0  0  0  0  0  0  0
   17.0854   -3.9646   -2.5383 C   0  0  0  0  0  0  0  0  0  0  0  0
   17.0272   -2.5003   -2.1059 C   0  0  2  0  0  0  0  0  0  0  0  0
   15.8429   -1.8973   -2.8587 C   0  0  0  0  0  0  0  0  0  0  0  0
   18.2455   -1.8681   -2.6728 C   0  0  0  0  0  0  0  0  0  0  0  0
   19.0521   -1.0596   -2.0045 C   0  0  0  0  0  0  0  0  0  0  0  0
   20.2069   -0.5267   -2.7197 C   0  0  0  0  0  0  0  0  0  0  0  0
   21.3600   -0.4207   -2.1951 O   0  0  0  0  0  0  0  0  0  0  0  0
   19.9877   -0.0950   -4.1325 C   0  0  0  0  0  0  0  0  0  0  0  0
   18.7993   -0.7949   -4.7552 C   0  0  0  0  0  0  0  0  0  0  0  0
   18.5981   -2.1472   -4.0718 C   0  0  1  0  0  0  0  0  0  0  0  0
   19.9903   -2.7956   -4.0515 C   0  0  0  0  0  0  0  0  0  0  0  0
   17.6726   -3.0329   -4.7991 C   0  0  1  0  0  0  0  0  0  0  0  0
   18.3709   -3.5873   -6.0212 C   0  0  0  0  0  0  0  0  0  0  0  0
   19.4044   -4.5788   -5.5316 C   0  0  0  0  0  0  0  0  0  0  0  0
   19.4729   -5.7017   -6.5456 C   0  0  0  0  0  3  0  0  0  0  0  0
   20.9262   -5.8687   -6.9684 C   0  0  0  0  0  0  0  0  0  0  0  0
  1  2  1  0
  2  3  2  0
  2  4  1  0
  5  4  1  0
  5  6  1  0
  6  7  2  0
  5  8  1  0
  8  9  1  0
  9 10  1  0
 11 10  1  6
 11 12  1  0
 12 13  1  0
 13 14  1  6
 13 15  1  0
 15 16  2  0
 16 17  1  0
 17 18  2  0
 17 19  1  0
 19 20  1  0
 20 21  1  0
 21 22  1  1
 21 23  1  0
 23 24  1  6
 24 25  1  0
 25 26  1  0
 26 27  1  0
 26  6  1  0
 23 11  1  0
 21 15  1  0
M  RAD  3   5   2  10   2  26   2
M  END
>  <docking_score>  (3) 
-4.931

$$$$
