
     RDKit          3D

 21 20  0  0  0  0  0  0  0  0999 V2000
   20.2107   -0.4939   -1.2553 C   0  0  0  0  0  0  0  0  0  0  0  0
   20.3476   -1.9303   -1.7414 C   0  0  0  0  0  0  0  0  0  0  0  0
   18.9598   -2.4702   -1.9321 C   0  0  0  0  0  0  0  0  0  0  0  0
   21.0689   -1.8909   -3.0601 C   0  0  0  0  0  0  0  0  0  0  0  0
   20.3488   -2.7227   -4.0729 C   0  0  0  0  0  0  0  0  0  0  0  0
   20.3083   -1.9402   -5.3827 C   0  0  0  0  0  0  0  0  0  0  0  0
   19.5294   -0.6850   -5.1470 C   0  0  1  0  0  0  0  0  0  0  0  0
   20.1189    0.5227   -5.8276 C   0  0  0  0  0  0  0  0  0  0  0  0
   18.0777   -0.8621   -5.5136 C   0  0  0  0  0  3  0  0  0  0  0  0
   17.9787   -1.7675   -6.7002 C   0  0  0  0  0  0  0  0  0  0  0  0
   17.1756   -2.9830   -6.3355 C   0  0  0  0  0  0  0  0  0  0  0  0
   16.0156   -2.5831   -5.4833 C   0  0  2  0  0  0  0  0  0  0  0  0
   16.1400   -2.9937   -4.0543 C   0  0  0  0  0  0  0  0  0  0  0  0
   14.7297   -3.0252   -6.0566 C   0  0  0  0  0  3  0  0  0  0  0  0
   14.8478   -4.2988   -6.8583 C   0  0  0  0  0  0  0  0  0  0  0  0
   13.9813   -5.3323   -6.2094 C   0  0  2  0  0  0  0  0  0  0  0  0
   12.7322   -4.7948   -5.5963 C   0  0  0  0  0  0  0  0  0  0  0  0
   14.7566   -6.2482   -5.2911 C   0  0  0  0  0  0  0  0  0  0  0  0
   16.1602   -6.4457   -5.7607 C   0  0  0  0  0  0  0  0  0  0  0  0
   17.1394   -6.4072   -4.6044 C   0  0  0  0  0  0  0  0  0  0  0  0
   18.3150   -5.8513   -5.0235 F   0  0  0  0  0  0  0  0  0  0  0  0
  1  2  1  0
  2  3  1  0
  2  4  1  0
  4  5  1  0
  5  6  1  0
  6  7  1  0
  7  8  1  6
  7  9  1  0
  9 10  1  0
 10 11  1  0
 11 12  1  0
 12 13  1  1
 12 14  1  0
 14 15  1  0
 15 16  1  0
 16 17  1  1
 16 18  1  0
 18 19  1  0
 19 20  1  0
 20 21  1  0
M  RAD  2   9   2  14   2
M  END
>  <docking_score>  (1) 
-3.117

$$$$

     RDKit          3D

 21 20  0  0  0  0  0  0  0  0999 V2000
   12.3701   -0.7264   -4.3054 C   0  0  0  0  0  0  0  0  0  0  0  0
   13.6865   -1.0493   -4.9990 C   0  0  0  0  0  0  0  0  0  0  0  0
   13.9829    0.0816   -5.9409 C   0  0  0  0  0  0  0  0  0  0  0  0
   14.7472   -1.1235   -3.9360 C   0  0  0  0  0  0  0  0  0  0  0  0
   16.0941   -1.3168   -4.5564 C   0  0  0  0  0  0  0  0  0  0  0  0
   16.8790   -2.2931   -3.6845 C   0  0  0  0  0  0  0  0  0  0  0  0
   17.7964   -3.0715   -4.5734 C   0  0  1  0  0  0  0  0  0  0  0  0
   17.8930   -2.5146   -5.9698 C   0  0  0  0  0  0  0  0  0  0  0  0
   19.1621   -3.2261   -3.9534 C   0  0  0  0  0  3  0  0  0  0  0  0
   19.5922   -4.6543   -4.0650 C   0  0  0  0  0  0  0  0  0  0  0  0
   18.6995   -5.5129   -3.2156 C   0  0  0  0  0  0  0  0  0  0  0  0
   18.2834   -6.7233   -3.9861 C   0  0  2  0  0  0  0  0  0  0  0  0
   19.2440   -7.8614   -3.8968 C   0  0  0  0  0  0  0  0  0  0  0  0
   17.9643   -6.4021   -5.3906 C   0  0  0  0  0  3  0  0  0  0  0  0
   16.6061   -6.9043   -5.8169 C   0  0  0  0  0  0  0  0  0  0  0  0
   15.5849   -6.2957   -4.9078 C   0  0  2  0  0  0  0  0  0  0  0  0
   14.5514   -7.2505   -4.4124 C   0  0  0  0  0  0  0  0  0  0  0  0
   15.0049   -5.0141   -5.4596 C   0  0  0  0  0  0  0  0  0  0  0  0
   13.7335   -5.2563   -6.2041 C   0  0  0  0  0  0  0  0  0  0  0  0
   13.9700   -5.2986   -7.7006 C   0  0  0  0  0  0  0  0  0  0  0  0
   12.7683   -5.2848   -8.3507 F   0  0  0  0  0  0  0  0  0  0  0  0
  1  2  1  0
  2  3  1  0
  2  4  1  0
  4  5  1  0
  5  6  1  0
  6  7  1  0
  7  8  1  6
  7  9  1  0
  9 10  1  0
 10 11  1  0
 11 12  1  0
 12 13  1  6
 12 14  1  0
 14 15  1  0
 15 16  1  0
 16 17  1  6
 16 18  1  0
 18 19  1  0
 19 20  1  0
 20 21  1  0
M  RAD  2   9   2  14   2
M  END
>  <docking_score>  (2) 
-3.0489999999999999

$$$$

     RDKit          3D

 21 20  0  0  0  0  0  0  0  0999 V2000
    5.5790    6.7830    5.0053 C   0  0  0  0  0  0  0  0  0  0  0  0
    5.1842    8.1302    5.5948 C   0  0  0  0  0  0  0  0  0  0  0  0
    5.9184    9.1871    4.8217 C   0  0  0  0  0  0  0  0  0  0  0  0
    3.7017    8.2881    5.3999 C   0  0  0  0  0  0  0  0  0  0  0  0
    2.9904    8.1914    6.7117 C   0  0  0  0  0  0  0  0  0  0  0  0
    3.9061    8.7682    7.7880 C   0  0  0  0  0  0  0  0  0  0  0  0
    3.4212   10.1442    8.1183 C   0  0  1  0  0  0  0  0  0  0  0  0
    3.1097   10.3351    9.5797 C   0  0  0  0  0  0  0  0  0  0  0  0
    4.3793   11.1980    7.6237 C   0  0  0  0  0  3  0  0  0  0  0  0
    3.6130   12.2503    6.8869 C   0  0  0  0  0  0  0  0  0  0  0  0
    3.2562   11.7431    5.5191 C   0  0  0  0  0  0  0  0  0  0  0  0
    3.9348   12.5755    4.4806 C   0  0  2  0  0  0  0  0  0  0  0  0
    3.2988   13.9064    4.2564 C   0  0  0  0  0  0  0  0  0  0  0  0
    4.1058   11.8439    3.2104 C   0  0  0  0  0  3  0  0  0  0  0  0
    4.4482   12.7473    2.0506 C   0  0  0  0  0  0  0  0  0  0  0  0
    5.9228   12.6520    1.8135 C   0  0  2  0  0  0  0  0  0  0  0  0
    6.4771   11.2710    1.9165 C   0  0  0  0  0  0  0  0  0  0  0  0
    6.7063   13.6752    2.6025 C   0  0  0  0  0  0  0  0  0  0  0  0
    7.8697   14.2005    1.8278 C   0  0  0  0  0  0  0  0  0  0  0  0
    9.1018   14.3279    2.7013 C   0  0  0  0  0  0  0  0  0  0  0  0
   10.0883   14.9664    2.0043 F   0  0  0  0  0  0  0  0  0  0  0  0
  1  2  1  0
  2  3  1  0
  2  4  1  0
  4  5  1  0
  5  6  1  0
  6  7  1  0
  7  8  1  1
  7  9  1  0
  9 10  1  0
 10 11  1  0
 11 12  1  0
 12 13  1  6
 12 14  1  0
 14 15  1  0
 15 16  1  0
 16 17  1  1
 16 18  1  0
 18 19  1  0
 19 20  1  0
 20 21  1  0
M  RAD  2   9   2  14   2
M  END
>  <docking_score>  (3) 
-2.73

$$$$
