
     RDKit          3D

 15 15  0  0  0  0  0  0  0  0999 V2000
    3.9969   -4.6693   -6.7292 O   0  0  0  0  0  0  0  0  0  0  0  0
    4.9677   -4.6292   -7.5176 C   0  0  0  0  0  0  0  0  0  0  0  0
    5.9974   -3.7078   -7.2009 N   0  0  0  0  0  0  0  0  0  0  0  0
    5.9043   -2.8852   -6.0436 C   0  0  0  0  0  0  0  0  0  0  0  0
    6.1228   -1.4472   -6.3031 C   0  0  0  0  0  0  0  0  0  0  0  0
    5.5863   -0.8457   -7.4112 C   0  0  0  0  0  0  0  0  0  0  0  0
    5.7738    0.4922   -7.6795 C   0  0  0  0  0  0  0  0  0  0  0  0
    6.5215    1.2647   -6.8173 C   0  0  0  0  0  0  0  0  0  0  0  0
    6.7172    2.5807   -7.0588 F   0  0  0  0  0  0  0  0  0  0  0  0
    7.0578    0.6472   -5.7031 C   0  0  0  0  0  0  0  0  0  0  0  0
    6.8692   -0.6877   -5.4387 C   0  0  0  0  0  0  0  0  0  0  0  0
    5.0770   -5.4638   -8.7108 C   0  0  0  0  0  0  0  0  0  0  0  0
    5.6230   -6.6638   -8.6662 C   0  0  0  0  0  0  0  0  0  0  0  0
    6.1563   -7.2307   -7.4028 C   0  0  0  0  0  0  0  0  0  0  0  0
    7.6850   -8.0726   -7.8472 Cl  0  0  0  0  0  0  0  0  0  0  0  0
  1  2  2  0
  2  3  1  0
  3  4  1  0
  4  5  1  0
  5  6  2  0
  6  7  1  0
  7  8  2  0
  8  9  1  0
  8 10  1  0
 10 11  2  0
  2 12  1  0
 12 13  2  3
 13 14  1  0
 14 15  1  0
 11  5  1  0
M  END
>  <docking_score>  (1) 
-5.8700000000000001

$$$$

     RDKit          3D

 15 15  0  0  0  0  0  0  0  0999 V2000
    4.5025   -2.2406   -5.9683 O   0  0  0  0  0  0  0  0  0  0  0  0
    5.7213   -2.2081   -6.2494 C   0  0  0  0  0  0  0  0  0  0  0  0
    6.0850   -2.6988   -7.5287 N   0  0  0  0  0  0  0  0  0  0  0  0
    5.0964   -3.1966   -8.4228 C   0  0  0  0  0  0  0  0  0  0  0  0
    4.9020   -4.6597   -8.3576 C   0  0  0  0  0  0  0  0  0  0  0  0
    5.9238   -5.4857   -7.9691 C   0  0  0  0  0  0  0  0  0  0  0  0
    5.7723   -6.8531   -7.8997 C   0  0  0  0  0  0  0  0  0  0  0  0
    4.5620   -7.4248   -8.2276 C   0  0  0  0  0  0  0  0  0  0  0  0
    4.3890   -8.7644   -8.1648 F   0  0  0  0  0  0  0  0  0  0  0  0
    3.5386   -6.5818   -8.6181 C   0  0  0  0  0  0  0  0  0  0  0  0
    3.6933   -5.2184   -8.6867 C   0  0  0  0  0  0  0  0  0  0  0  0
    6.7484   -1.7037   -5.3424 C   0  0  0  0  0  0  0  0  0  0  0  0
    7.1259   -0.4398   -5.3612 C   0  0  0  0  0  0  0  0  0  0  0  0
    6.5287    0.5376   -6.3046 C   0  0  0  0  0  0  0  0  0  0  0  0
    6.5195    2.1163   -5.4379 Cl  0  0  0  0  0  0  0  0  0  0  0  0
  1  2  2  0
  2  3  1  0
  3  4  1  0
  4  5  1  0
  5  6  2  0
  6  7  1  0
  7  8  2  0
  8  9  1  0
  8 10  1  0
 10 11  2  0
  2 12  1  0
 12 13  2  3
 13 14  1  0
 14 15  1  0
 11  5  1  0
M  END
>  <docking_score>  (2) 
-5.0229999999999997

$$$$

     RDKit          3D

 15 15  0  0  0  0  0  0  0  0999 V2000
   16.1309   -4.6645   -2.2613 O   0  0  0  0  0  0  0  0  0  0  0  0
   16.4490   -4.5333   -3.4643 C   0  0  0  0  0  0  0  0  0  0  0  0
   17.8366   -4.4495   -3.7424 N   0  0  0  0  0  0  0  0  0  0  0  0
   18.7926   -4.5125   -2.6904 C   0  0  0  0  0  0  0  0  0  0  0  0
   19.3362   -3.1995   -2.2862 C   0  0  0  0  0  0  0  0  0  0  0  0
   19.0173   -2.0642   -2.9841 C   0  0  0  0  0  0  0  0  0  0  0  0
   19.5095   -0.8270   -2.6313 C   0  0  0  0  0  0  0  0  0  0  0  0
   20.3500   -0.7091   -1.5456 C   0  0  0  0  0  0  0  0  0  0  0  0
   20.8436    0.4952   -1.1791 F   0  0  0  0  0  0  0  0  0  0  0  0
   20.6646   -1.8610   -0.8493 C   0  0  0  0  0  0  0  0  0  0  0  0
   20.1723   -3.0936   -1.2041 C   0  0  0  0  0  0  0  0  0  0  0  0
   15.4808   -4.4638   -4.5551 C   0  0  0  0  0  0  0  0  0  0  0  0
   14.9337   -3.3206   -4.9208 C   0  0  0  0  0  0  0  0  0  0  0  0
   15.2711   -2.0438   -4.2441 C   0  0  0  0  0  0  0  0  0  0  0  0
   15.6152   -0.8644   -5.5610 Cl  0  0  0  0  0  0  0  0  0  0  0  0
  1  2  2  0
  2  3  1  0
  3  4  1  0
  4  5  1  0
  5  6  2  0
  6  7  1  0
  7  8  2  0
  8  9  1  0
  8 10  1  0
 10 11  2  0
  2 12  1  0
 12 13  2  3
 13 14  1  0
 14 15  1  0
 11  5  1  0
M  END
>  <docking_score>  (3) 
-4.3659999999999997

$$$$
