
     RDKit          3D

 39 40  0  0  0  0  0  0  0  0999 V2000
    9.2650   13.4515    3.4423 C   0  0  0  0  0  0  0  0  0  0  0  0
    8.1444   13.9971    4.2790 C   0  0  2  0  0  0  0  0  0  0  0  0
    8.2784   13.4291    5.6760 C   0  0  0  0  0  0  0  0  0  0  0  0
    6.7853   13.5483    3.7514 C   0  0  1  0  0  0  0  0  0  0  0  0
    5.6574   14.1811    4.4877 C   0  0  0  0  0  0  0  0  0  0  0  0
    5.9453   14.4600    5.9270 C   0  0  0  0  0  0  0  0  0  0  0  0
    5.5648   13.3093    6.8352 C   0  0  1  0  0  0  0  0  0  0  0  0
    5.9783   13.6665    8.2494 C   0  0  0  0  0  0  0  0  0  0  0  0
    4.0604   13.0922    6.8290 C   0  0  0  0  0  3  0  0  0  0  0  0
    3.6006   12.3014    5.6458 C   0  0  0  0  0  0  0  0  0  0  0  0
    2.4185   11.4528    5.9908 C   0  0  0  0  0  0  0  0  0  0  0  0
    2.7703   10.0019    6.2070 C   0  0  2  0  0  0  0  0  0  0  0  0
    3.4727    9.7854    7.5277 C   0  0  0  0  0  3  0  0  0  0  0  0
    2.6573   10.4704    8.6068 C   0  0  0  0  0  3  0  0  0  0  0  0
    2.2639    9.4448    9.6271 C   0  0  0  0  0  0  0  0  0  0  0  0
    2.9971    9.7683   10.9109 C   0  0  1  0  0  0  0  0  0  0  0  0
    2.4780    8.9021   11.9529 N   0  0  0  0  0  1  0  0  0  0  0  0
    4.4771    9.4925   10.7505 C   0  0  0  0  0  3  0  0  0  0  0  0
    5.2345   10.5690   11.4095 C   0  0  0  0  0  0  0  0  0  0  0  0
    5.8612   11.4309   11.9316 C   0  0  0  0  0  0  0  0  0  0  0  0
    6.6403   12.4960   12.5641 C   0  0  0  0  0  0  0  0  0  0  0  0
    7.7065   13.0129   11.6289 C   0  0  0  0  0  0  0  0  0  0  0  0
    8.4627   14.0967   12.3699 C   0  0  0  0  0  0  0  0  0  0  0  0
    9.4631   14.7846   11.4407 C   0  0  0  0  0  0  0  0  0  0  0  0
   10.5461   13.7730   11.1206 C   0  0  0  0  0  2  0  0  0  0  0  0
    3.5600    9.4186    5.0598 C   0  0  0  0  0  0  0  0  0  0  0  0
    4.8205    8.7182    5.5517 C   0  0  0  0  0  0  0  0  0  0  0  0
    5.8175    9.7434    6.1062 C   0  0  0  0  0  3  0  0  0  0  0  0
    6.9499    9.8038    5.0731 C   0  0  0  0  0  0  0  0  0  0  0  0
    6.2758   10.0366    3.7588 C   0  0  0  0  0  0  0  0  0  0  0  0
    6.1557   11.2867    3.3680 C   0  0  0  0  0  0  0  0  0  0  0  0
    5.5254   11.6753    2.1170 C   0  0  0  0  0  0  0  0  0  0  0  0
    5.8006   12.8484    1.5906 C   0  0  0  0  0  3  0  0  0  0  0  0
    6.7332   13.7434    2.2673 C   0  0  1  0  0  0  0  0  0  0  0  0
    6.5931   15.1859    1.8606 C   0  0  0  0  0  0  0  0  0  0  0  0
    7.7795   16.0034    2.2558 C   0  0  0  0  0  0  0  0  0  0  0  0
    9.0149   15.7062    1.4386 C   0  0  0  0  0  0  0  0  0  0  0  0
   10.1931   15.4171    2.2605 C   0  0  0  0  0  0  0  0  0  0  0  0
   10.3119   14.4431    3.1313 C   0  0  0  0  0  0  0  0  0  0  0  0
  1  2  1  0
  2  3  1  1
  2  4  1  0
  4  5  1  1
  5  6  1  0
  6  7  1  0
  7  8  1  1
  7  9  1  0
  9 10  1  0
 10 11  1  0
 11 12  1  0
 12 13  1  1
 13 14  1  0
 14 15  1  0
 15 16  1  0
 16 17  1  1
 16 18  1  0
 18 19  1  0
 19 20  3  0
 20 21  1  0
 21 22  1  0
 22 23  1  0
 23 24  1  0
 24 25  1  0
 12 26  1  0
 26 27  1  0
 27 28  1  0
 28 29  1  0
 29 30  1  0
 30 31  2  3
 31 32  1  0
 32 33  2  3
 33 34  1  0
 34 35  1  1
 35 36  1  0
 36 37  1  0
 37 38  1  0
 38 39  2  3
 39  1  1  0
 34  4  1  0
M  RAD  8   9   2  13   2  14   2  17   2  18   2  25   3  28   2  33   2
M  CHG  1  17   1
M  END
>  <docking_score>  (1) 
-3.7519999999999998

$$$$
