
     RDKit          3D

 26 25  0  0  0  0  0  0  0  0999 V2000
   15.7499   -1.8335   -6.4049 C   0  0  0  0  0  0  0  0  0  0  0  0
   14.9589   -1.1486   -5.2745 C   0  0  0  0  0  0  0  0  0  0  0  0
   13.5198   -1.5782   -5.3357 C   0  0  0  0  0  0  0  0  0  0  0  0
   15.0451    0.2303   -5.4488 O   0  0  0  0  0  0  0  0  0  0  0  0
   15.5023   -1.5237   -3.9424 C   0  0  0  0  0  0  0  0  0  0  0  0
   16.1027   -2.8495   -3.8846 C   0  0  0  0  0  0  0  0  0  0  0  0
   16.9920   -3.1205   -2.7560 C   0  0  0  0  0  0  0  0  0  0  0  0
   16.5693   -3.3549   -1.6232 O   0  0  0  0  0  0  0  0  0  0  0  0
   18.4789   -3.1125   -2.9997 C   0  0  1  0  0  0  0  0  0  0  0  0
   18.7799   -2.1483   -4.1410 C   0  0  0  0  0  0  0  0  0  0  0  0
   19.0992   -2.6454   -1.8617 O   0  0  0  0  0  0  0  0  0  0  0  0
   18.8929   -4.5144   -3.3510 C   0  0  2  0  0  0  0  0  0  0  0  0
   20.0776   -4.9821   -2.5488 C   0  0  0  0  0  0  0  0  0  0  0  0
   19.1708   -4.5588   -4.7224 O   0  0  0  0  0  0  0  0  0  0  0  0
   19.8362   -5.7271   -5.0626 C   0  0  0  0  0  0  0  0  0  0  0  0
   19.1640   -6.2339   -6.3307 C   0  0  0  0  0  0  0  0  0  0  0  0
   20.0717   -7.1999   -7.0555 C   0  0  0  0  0  0  0  0  0  0  0  0
   18.8127   -5.0266   -7.1708 C   0  0  0  0  0  0  0  0  0  0  0  0
   17.8651   -6.8909   -5.9192 C   0  0  1  0  0  0  0  0  0  0  0  0
   16.7755   -6.1701   -6.6144 C   0  0  0  0  0  0  0  0  0  0  0  0
   15.6290   -6.0299   -5.9789 C   0  0  0  0  0  0  0  0  0  0  0  0
   14.4838   -5.3307   -6.5824 C   0  0  0  0  0  0  0  0  0  0  0  0
   13.4003   -5.2265   -5.8483 C   0  0  0  0  0  0  0  0  0  0  0  0
   17.8499   -8.3557   -6.1396 C   0  0  0  0  0  0  0  0  0  0  0  0
   17.4549   -9.1201   -5.0925 F   0  0  0  0  0  0  0  0  0  0  0  0
   17.3849   -8.7153   -7.3639 F   0  0  0  0  0  0  0  0  0  0  0  0
  1  2  1  0
  2  3  1  0
  2  4  1  0
  2  5  1  0
  5  6  1  0
  6  7  1  0
  7  8  2  0
  7  9  1  0
  9 10  1  6
  9 11  1  0
  9 12  1  0
 12 13  1  1
 12 14  1  0
 14 15  1  0
 15 16  1  0
 16 17  1  0
 16 18  1  0
 16 19  1  0
 19 20  1  0
 20 21  2  3
 21 22  1  0
 22 23  2  0
 19 24  1  6
 24 25  1  0
 24 26  1  0
M  END
>  <docking_score>  (1) 
-3.661

$$$$

     RDKit          3D

 26 25  0  0  0  0  0  0  0  0999 V2000
   18.8465   -1.7607   -6.5547 C   0  0  0  0  0  0  0  0  0  0  0  0
   18.9430   -2.3825   -7.9606 C   0  0  0  0  0  0  0  0  0  0  0  0
   20.1282   -1.8078   -8.6847 C   0  0  0  0  0  0  0  0  0  0  0  0
   17.7756   -2.0808   -8.6573 O   0  0  0  0  0  0  0  0  0  0  0  0
   19.1150   -3.8571   -7.8792 C   0  0  0  0  0  0  0  0  0  0  0  0
   18.2975   -4.5071   -6.8641 C   0  0  0  0  0  0  0  0  0  0  0  0
   17.0663   -5.1490   -7.3225 C   0  0  0  0  0  0  0  0  0  0  0  0
   16.9919   -5.7427   -8.3989 O   0  0  0  0  0  0  0  0  0  0  0  0
   15.8500   -5.0770   -6.4359 C   0  0  1  0  0  0  0  0  0  0  0  0
   15.2803   -3.6651   -6.5046 C   0  0  0  0  0  0  0  0  0  0  0  0
   14.9056   -5.9507   -6.9289 O   0  0  0  0  0  0  0  0  0  0  0  0
   16.2819   -5.4199   -5.0373 C   0  0  2  0  0  0  0  0  0  0  0  0
   15.6617   -6.6985   -4.5412 C   0  0  0  0  0  0  0  0  0  0  0  0
   15.9499   -4.3476   -4.2007 O   0  0  0  0  0  0  0  0  0  0  0  0
   17.0270   -3.4907   -4.0307 C   0  0  0  0  0  0  0  0  0  0  0  0
   17.1379   -3.2552   -2.5310 C   0  0  0  0  0  0  0  0  0  0  0  0
   16.5341   -4.4134   -1.7720 C   0  0  0  0  0  0  0  0  0  0  0  0
   16.4526   -1.9420   -2.2268 C   0  0  0  0  0  0  0  0  0  0  0  0
   18.6061   -3.0831   -2.2104 C   0  0  1  0  0  0  0  0  0  0  0  0
   19.3422   -4.1047   -2.9880 C   0  0  0  0  0  0  0  0  0  0  0  0
   20.3787   -4.6836   -2.4145 C   0  0  0  0  0  0  0  0  0  0  0  0
   21.1770   -5.7103   -3.1023 C   0  0  0  0  0  0  0  0  0  0  0  0
   20.5981   -6.3417   -4.0973 C   0  0  0  0  0  0  0  0  0  0  0  0
   19.0973   -1.7015   -2.4211 C   0  0  0  0  0  0  0  0  0  0  0  0
   18.8370   -0.8107   -1.4335 F   0  0  0  0  0  0  0  0  0  0  0  0
   20.3336   -1.6446   -2.9803 F   0  0  0  0  0  0  0  0  0  0  0  0
  1  2  1  0
  2  3  1  0
  2  4  1  0
  2  5  1  0
  5  6  1  0
  6  7  1  0
  7  8  2  0
  7  9  1  0
  9 10  1  1
  9 11  1  0
  9 12  1  0
 12 13  1  1
 12 14  1  0
 14 15  1  0
 15 16  1  0
 16 17  1  0
 16 18  1  0
 16 19  1  0
 19 20  1  0
 20 21  2  3
 21 22  1  0
 22 23  2  0
 19 24  1  6
 24 25  1  0
 24 26  1  0
M  END
>  <docking_score>  (2) 
-3.2509999999999999

$$$$

     RDKit          3D

 26 25  0  0  0  0  0  0  0  0999 V2000
   15.7064   -1.8745   -3.6737 C   0  0  0  0  0  0  0  0  0  0  0  0
   14.7576   -1.5020   -4.8285 C   0  0  0  0  0  0  0  0  0  0  0  0
   14.0037   -0.2501   -4.4764 C   0  0  0  0  0  0  0  0  0  0  0  0
   13.8622   -2.5512   -5.0195 O   0  0  0  0  0  0  0  0  0  0  0  0
   15.5176   -1.2530   -6.0819 C   0  0  0  0  0  0  0  0  0  0  0  0
   15.5822   -2.3919   -6.9875 C   0  0  0  0  0  0  0  0  0  0  0  0
   16.7573   -3.2549   -6.8767 C   0  0  0  0  0  0  0  0  0  0  0  0
   16.7136   -4.3660   -6.3473 O   0  0  0  0  0  0  0  0  0  0  0  0
   18.0647   -2.7573   -7.4366 C   0  0  1  0  0  0  0  0  0  0  0  0
   18.9755   -3.9540   -7.6837 C   0  0  0  0  0  0  0  0  0  0  0  0
   17.8111   -2.1476   -8.6458 O   0  0  0  0  0  0  0  0  0  0  0  0
   18.6661   -1.8173   -6.4291 C   0  0  2  0  0  0  0  0  0  0  0  0
   19.9384   -1.1824   -6.9228 C   0  0  0  0  0  0  0  0  0  0  0  0
   18.8915   -2.5296   -5.2450 O   0  0  0  0  0  0  0  0  0  0  0  0
   20.2481   -2.6742   -4.9961 C   0  0  0  0  0  0  0  0  0  0  0  0
   20.3579   -3.6943   -3.8718 C   0  0  0  0  0  0  0  0  0  0  0  0
   21.2744   -4.8249   -4.2768 C   0  0  0  0  0  0  0  0  0  0  0  0
   18.9580   -4.1687   -3.5523 C   0  0  0  0  0  0  0  0  0  0  0  0
   20.8768   -2.9653   -2.6523 C   0  0  1  0  0  0  0  0  0  0  0  0
   20.3720   -1.5763   -2.7304 C   0  0  0  0  0  0  0  0  0  0  0  0
   21.2324   -0.5981   -2.5274 C   0  0  0  0  0  0  0  0  0  0  0  0
   20.8313    0.8163   -2.5821 C   0  0  0  0  0  0  0  0  0  0  0  0
   21.3824    1.5517   -3.5198 C   0  0  0  0  0  0  0  0  0  0  0  0
   20.5568   -3.6478   -1.3771 C   0  0  0  0  0  0  0  0  0  0  0  0
   21.2619   -4.7714   -1.0999 F   0  0  0  0  0  0  0  0  0  0  0  0
   20.3438   -2.7935   -0.3430 F   0  0  0  0  0  0  0  0  0  0  0  0
  1  2  1  0
  2  3  1  0
  2  4  1  0
  2  5  1  0
  5  6  1  0
  6  7  1  0
  7  8  2  0
  7  9  1  0
  9 10  1  6
  9 11  1  0
  9 12  1  0
 12 13  1  6
 12 14  1  0
 14 15  1  0
 15 16  1  0
 16 17  1  0
 16 18  1  0
 16 19  1  0
 19 20  1  0
 20 21  2  3
 21 22  1  0
 22 23  2  0
 19 24  1  1
 24 25  1  0
 24 26  1  0
M  END
>  <docking_score>  (3) 
-3.1600000000000001

$$$$
