
     RDKit          3D

 31 32  0  0  0  0  0  0  0  0999 V2000
    6.4569   12.9568   13.0920 C   0  0  0  0  0  0  0  0  0  0  0  0
    6.6007   12.0576   11.8801 C   0  0  0  0  0  0  0  0  0  0  0  0
    5.4967   12.4079   10.9250 C   0  0  0  0  0  0  0  0  0  0  0  0
    6.5079   10.5959   12.2679 C   0  0  0  0  0  0  0  0  0  0  0  0
    5.1273   10.0541   12.0757 C   0  0  0  0  0  0  0  0  0  0  0  0
    5.0917    8.6774   11.4741 C   0  0  0  0  0  0  0  0  0  0  0  0
    3.9606    8.4644   10.5223 C   0  0  1  0  0  0  0  0  0  0  0  0
    2.6901    9.1274   11.0079 C   0  0  0  0  0  0  0  0  0  0  0  0
    4.2781    8.8763    9.1047 C   0  0  0  0  0  3  0  0  0  0  0  0
    3.3091    9.9720    8.7275 C   0  0  0  0  0  0  0  0  0  0  0  0
    3.9624   11.1009    7.9860 C   0  0  0  0  0  0  0  0  0  0  0  0
    3.7677   10.9558    6.4781 C   0  0  1  0  0  0  0  0  0  0  0  0
    2.7727    9.8325    6.2557 C   0  0  0  0  0  0  0  0  0  0  0  0
    3.1447   12.2133    5.9218 C   0  0  0  0  0  3  0  0  0  0  0  0
    3.0558   13.2937    7.0092 C   0  0  0  0  0  0  0  0  0  0  0  0
    3.9872   14.4036    6.5358 C   0  0  2  0  0  0  0  0  0  0  0  0
    4.1200   15.4594    7.4851 N   0  0  0  0  0  0  0  0  0  0  0  0
    3.5803   14.8716    5.1594 C   0  0  0  0  0  0  0  0  0  0  0  0
    3.8839   13.8107    4.1223 C   0  0  0  0  0  0  0  0  0  0  0  0
    5.3150   13.2877    4.2828 C   0  0  2  0  0  0  0  0  0  0  0  0
    5.4114   12.8037    5.5812 O   0  0  0  0  0  0  0  0  0  0  0  0
    6.2311   14.4550    4.0251 C   0  0  0  0  0  0  0  0  0  0  0  0
    7.4151   14.0951    3.1655 C   0  0  0  0  0  0  0  0  0  0  0  0
    7.5802   12.6125    2.9800 C   0  0  1  0  0  0  0  0  0  0  0  0
    8.4446   12.0320    3.8722 O   0  0  0  0  0  0  0  0  0  0  0  0
    6.4019   11.9338    2.8003 O   0  0  0  0  0  0  0  0  0  0  0  0
    6.5500   10.6401    3.3054 C   0  0  0  0  0  0  0  0  0  0  0  0
    5.1630   10.1194    3.5922 C   0  0  0  0  0  0  0  0  0  0  0  0
    5.0003    9.6489    4.8713 O   0  0  0  0  0  0  0  0  0  0  0  0
    5.0571   10.5954    5.8560 C   0  0  1  0  0  0  0  0  0  0  0  0
    5.9416   11.6112    5.6520 O   0  0  0  0  0  0  0  0  0  0  0  0
  1  2  1  0
  2  3  1  0
  2  4  1  0
  4  5  1  0
  5  6  1  0
  6  7  1  0
  7  8  1  1
  7  9  1  0
  9 10  1  0
 10 11  1  0
 11 12  1  0
 12 13  1  1
 12 14  1  0
 14 15  1  0
 15 16  1  0
 16 17  1  1
 16 18  1  0
 18 19  1  0
 20 19  1  1
 20 21  1  0
 20 22  1  0
 22 23  1  0
 23 24  1  0
 24 25  1  1
 24 26  1  0
 26 27  1  0
 27 28  1  0
 28 29  1  0
 30 29  1  6
 30 31  1  0
 30 12  1  0
 31 21  1  0
M  RAD  2   9   2  14   2
M  END
>  <docking_score>  (1) 
-4.3639999999999999

$$$$

     RDKit          3D

 31 32  0  0  0  0  0  0  0  0999 V2000
    6.4392   14.2518   10.2920 C   0  0  0  0  0  0  0  0  0  0  0  0
    6.0999   13.3019   11.4237 C   0  0  0  0  0  0  0  0  0  0  0  0
    7.3913   12.7390   11.9425 C   0  0  0  0  0  0  0  0  0  0  0  0
    5.1987   12.1810   10.9472 C   0  0  0  0  0  0  0  0  0  0  0  0
    5.3097   10.9685   11.8153 C   0  0  0  0  0  0  0  0  0  0  0  0
    3.9943   10.2980   12.0958 C   0  0  0  0  0  0  0  0  0  0  0  0
    3.9709    8.8461   11.7463 C   0  0  1  0  0  0  0  0  0  0  0  0
    3.5919    7.9917   12.9362 C   0  0  0  0  0  0  0  0  0  0  0  0
    3.1038    8.5259   10.5523 C   0  0  0  0  0  3  0  0  0  0  0  0
    4.0262    8.2429    9.3901 C   0  0  0  0  0  0  0  0  0  0  0  0
    4.2741    9.4490    8.5329 C   0  0  0  0  0  0  0  0  0  0  0  0
    3.6909    9.2603    7.1339 C   0  0  1  0  0  0  0  0  0  0  0  0
    2.8444    8.0018    7.1618 C   0  0  0  0  0  0  0  0  0  0  0  0
    2.7649   10.4076    6.8094 C   0  0  0  0  0  3  0  0  0  0  0  0
    2.8282   11.4755    7.9108 C   0  0  0  0  0  0  0  0  0  0  0  0
    3.4228   12.7038    7.2317 C   0  0  2  0  0  0  0  0  0  0  0  0
    3.6620   13.7782    8.1383 N   0  0  0  0  0  0  0  0  0  0  0  0
    2.5870   13.0923    6.0360 C   0  0  0  0  0  0  0  0  0  0  0  0
    2.7388   12.0753    4.9242 C   0  0  0  0  0  0  0  0  0  0  0  0
    4.2175   11.7680    4.6671 C   0  0  2  0  0  0  0  0  0  0  0  0
    4.7391   11.3177    5.8731 O   0  0  0  0  0  0  0  0  0  0  0  0
    4.8494   13.0533    4.2011 C   0  0  0  0  0  0  0  0  0  0  0  0
    5.7867   12.8600    3.0373 C   0  0  0  0  0  0  0  0  0  0  0  0
    6.1038   11.4152    2.7692 C   0  0  1  0  0  0  0  0  0  0  0  0
    7.2557   10.9767    3.3699 O   0  0  0  0  0  0  0  0  0  0  0  0
    5.0315   10.5703    2.9021 O   0  0  0  0  0  0  0  0  0  0  0  0
    5.4975    9.3177    3.3077 C   0  0  0  0  0  0  0  0  0  0  0  0
    4.3340    8.6039    3.9511 C   0  0  0  0  0  0  0  0  0  0  0  0
    4.6020    8.1290    5.2106 O   0  0  0  0  0  0  0  0  0  0  0  0
    4.7944    9.0845    6.1691 C   0  0  1  0  0  0  0  0  0  0  0  0
    5.4328   10.2159    5.7589 O   0  0  0  0  0  0  0  0  0  0  0  0
  1  2  1  0
  2  3  1  0
  2  4  1  0
  4  5  1  0
  5  6  1  0
  6  7  1  0
  7  8  1  1
  7  9  1  0
  9 10  1  0
 10 11  1  0
 11 12  1  0
 12 13  1  1
 12 14  1  0
 14 15  1  0
 15 16  1  0
 16 17  1  1
 16 18  1  0
 18 19  1  0
 20 19  1  1
 20 21  1  0
 20 22  1  0
 22 23  1  0
 23 24  1  0
 24 25  1  1
 24 26  1  0
 26 27  1  0
 27 28  1  0
 28 29  1  0
 30 29  1  6
 30 31  1  0
 30 12  1  0
 31 21  1  0
M  RAD  2   9   2  14   2
M  END
>  <docking_score>  (2) 
-3.9769999999999999

$$$$

     RDKit          3D

 31 32  0  0  0  0  0  0  0  0999 V2000
   14.6066   -1.1507   -4.0805 C   0  0  0  0  0  0  0  0  0  0  0  0
   15.3179   -0.7982   -5.3719 C   0  0  0  0  0  0  0  0  0  0  0  0
   14.3191   -0.1241   -6.2674 C   0  0  0  0  0  0  0  0  0  0  0  0
   15.8705   -2.0359   -6.0489 C   0  0  0  0  0  0  0  0  0  0  0  0
   15.0325   -2.4558   -7.2142 C   0  0  0  0  0  0  0  0  0  0  0  0
   14.2610   -3.7247   -6.9835 C   0  0  0  0  0  0  0  0  0  0  0  0
   15.0445   -4.9656   -7.2610 C   0  0  1  0  0  0  0  0  0  0  0  0
   16.3336   -4.6600   -7.9919 C   0  0  0  0  0  0  0  0  0  0  0  0
   15.3049   -5.8032   -6.0319 C   0  0  0  0  0  3  0  0  0  0  0  0
   15.8156   -4.8747   -4.9554 C   0  0  0  0  0  0  0  0  0  0  0  0
   15.9752   -5.5520   -3.6261 C   0  0  0  0  0  0  0  0  0  0  0  0
   16.9995   -4.8254   -2.7567 C   0  0  1  0  0  0  0  0  0  0  0  0
   16.4551   -4.7995   -1.3410 C   0  0  0  0  0  0  0  0  0  0  0  0
   18.2865   -5.6136   -2.7199 C   0  0  0  0  0  3  0  0  0  0  0  0
   18.2158   -6.8009   -3.6909 C   0  0  0  0  0  0  0  0  0  0  0  0
   19.2676   -6.5017   -4.7528 C   0  0  2  0  0  0  0  0  0  0  0  0
   19.2717   -7.4542   -5.8140 N   0  0  0  0  0  0  0  0  0  0  0  0
   20.6179   -6.3065   -4.1063 C   0  0  0  0  0  0  0  0  0  0  0  0
   20.6542   -5.0099   -3.3247 C   0  0  0  0  0  0  0  0  0  0  0  0
   20.1149   -3.8510   -4.1694 C   0  0  2  0  0  0  0  0  0  0  0  0
   18.8264   -4.2078   -4.5461 O   0  0  0  0  0  0  0  0  0  0  0  0
   21.0470   -3.7040   -5.3432 C   0  0  0  0  0  0  0  0  0  0  0  0
   21.3820   -2.2678   -5.6522 C   0  0  0  0  0  0  0  0  0  0  0  0
   20.5128   -1.2877   -4.9150 C   0  0  1  0  0  0  0  0  0  0  0  0
   19.4222   -0.8629   -5.6292 O   0  0  0  0  0  0  0  0  0  0  0  0
   20.2450   -1.6397   -3.6166 O   0  0  0  0  0  0  0  0  0  0  0  0
   18.9942   -1.1280   -3.2640 C   0  0  0  0  0  0  0  0  0  0  0  0
   18.4986   -1.9459   -2.0966 C   0  0  0  0  0  0  0  0  0  0  0  0
   17.2459   -2.4753   -2.2819 O   0  0  0  0  0  0  0  0  0  0  0  0
   17.1539   -3.4409   -3.2452 C   0  0  1  0  0  0  0  0  0  0  0  0
   17.9458   -3.2643   -4.3395 O   0  0  0  0  0  0  0  0  0  0  0  0
  1  2  1  0
  2  3  1  0
  2  4  1  0
  4  5  1  0
  5  6  1  0
  6  7  1  0
  7  8  1  1
  7  9  1  0
  9 10  1  0
 10 11  1  0
 11 12  1  0
 12 13  1  1
 12 14  1  0
 14 15  1  0
 15 16  1  0
 16 17  1  6
 16 18  1  0
 18 19  1  0
 20 19  1  1
 20 21  1  0
 20 22  1  0
 22 23  1  0
 23 24  1  0
 24 25  1  6
 24 26  1  0
 26 27  1  0
 27 28  1  0
 28 29  1  0
 30 29  1  1
 30 31  1  0
 30 12  1  0
 31 21  1  0
M  RAD  2   9   2  14   2
M  END
>  <docking_score>  (3) 
-3.3690000000000002

$$$$
