
     RDKit          3D

 21 20  0  0  0  0  0  0  0  0999 V2000
   19.5184   -1.9661   -2.0761 O   0  0  0  0  0  0  0  0  0  0  0  0
   19.4188   -3.1682   -1.3613 C   0  0  0  0  0  0  0  0  0  0  0  0
   19.3962   -4.3152   -2.3797 C   0  0  0  0  0  3  0  0  0  0  0  0
   18.8014   -3.7775   -3.5653 N   0  0  0  0  0  0  0  0  0  0  0  0
   19.2585   -4.3773   -4.7828 C   0  0  2  0  0  0  0  0  0  0  0  0
   20.2475   -3.5643   -5.5542 C   0  0  0  0  0  0  0  0  0  0  0  0
   21.2649   -3.0685   -4.7640 O   0  0  0  0  0  0  0  0  0  0  0  0
   18.0465   -4.6315   -5.6729 C   0  0  1  0  0  0  0  0  0  0  0  0
   18.5234   -5.0872   -6.9205 O   0  0  0  0  0  0  0  0  0  0  0  0
   17.2617   -5.7402   -4.9720 C   0  0  2  0  0  0  0  0  0  0  0  0
   17.6584   -6.9606   -5.5694 O   0  0  0  0  0  0  0  0  0  0  0  0
   15.8050   -5.5383   -5.3245 C   0  0  1  0  0  0  0  0  0  0  0  0
   14.9030   -6.9434   -4.7154 Cl  0  0  0  0  0  0  0  0  0  0  0  0
   15.3306   -4.2647   -4.6689 C   0  0  0  0  0  0  0  0  0  0  0  0
   14.5242   -3.5562   -5.5563 O   0  0  0  0  0  0  0  0  0  0  0  0
   14.6744   -2.1838   -5.3528 C   0  0  2  0  0  0  0  0  0  0  0  0
   15.1884   -1.5886   -6.6680 C   0  0  0  0  0  0  0  0  0  0  0  0
   15.7950   -1.9249   -4.3409 C   0  0  0  0  0  0  0  0  0  0  0  0
   15.2026   -1.3753   -3.2085 O   0  0  0  0  0  0  0  0  0  0  0  0
   15.9876   -1.6039   -2.0802 C   0  0  0  0  0  0  0  0  0  0  0  0
   15.6999   -0.7432   -1.0643 F   0  0  0  0  0  0  0  0  0  0  0  0
  1  2  1  0
  2  3  1  0
  3  4  1  0
  4  5  1  0
  5  6  1  6
  6  7  1  0
  5  8  1  0
  8  9  1  6
  8 10  1  0
 10 11  1  6
 10 12  1  0
 12 13  1  1
 12 14  1  0
 14 15  1  0
 15 16  1  0
 16 17  1  6
 16 18  1  0
 18 19  1  0
 19 20  1  0
 20 21  1  0
M  RAD  1   3   2
M  END
>  <docking_score>  (1) 
-3.262

$$$$

     RDKit          3D

 21 20  0  0  0  0  0  0  0  0999 V2000
   10.8376   14.7255    3.9958 O   0  0  0  0  0  0  0  0  0  0  0  0
    9.8003   14.7433    3.0525 C   0  0  0  0  0  0  0  0  0  0  0  0
    8.5685   15.3611    3.7265 C   0  0  0  0  0  3  0  0  0  0  0  0
    7.8659   14.2733    4.3361 N   0  0  0  0  0  0  0  0  0  0  0  0
    6.4534   14.4744    4.4601 C   0  0  2  0  0  0  0  0  0  0  0  0
    5.9951   14.9135    5.8134 C   0  0  0  0  0  0  0  0  0  0  0  0
    6.9520   14.7239    6.7900 O   0  0  0  0  0  0  0  0  0  0  0  0
    5.7537   13.1634    4.1174 C   0  0  1  0  0  0  0  0  0  0  0  0
    4.7585   12.9449    5.0938 O   0  0  0  0  0  0  0  0  0  0  0  0
    5.1091   13.3998    2.7518 C   0  0  2  0  0  0  0  0  0  0  0  0
    3.7472   13.0342    2.8751 O   0  0  0  0  0  0  0  0  0  0  0  0
    5.7375   12.4144    1.7922 C   0  0  1  0  0  0  0  0  0  0  0  0
    7.1072   13.2277    1.0039 Cl  0  0  0  0  0  0  0  0  0  0  0  0
    6.2012   11.2144    2.5809 C   0  0  0  0  0  0  0  0  0  0  0  0
    5.8993   10.0502    1.8786 O   0  0  0  0  0  0  0  0  0  0  0  0
    5.0934    9.2155    2.6540 C   0  0  2  0  0  0  0  0  0  0  0  0
    3.6384    9.5433    2.3023 C   0  0  0  0  0  0  0  0  0  0  0  0
    5.2313    9.5837    4.1346 C   0  0  0  0  0  0  0  0  0  0  0  0
    5.8442    8.5067    4.7669 O   0  0  0  0  0  0  0  0  0  0  0  0
    4.9212    7.4955    5.0258 C   0  0  0  0  0  0  0  0  0  0  0  0
    5.4478    6.2524    4.8432 F   0  0  0  0  0  0  0  0  0  0  0  0
  1  2  1  0
  2  3  1  0
  3  4  1  0
  4  5  1  0
  5  6  1  1
  6  7  1  0
  5  8  1  0
  8  9  1  1
  8 10  1  0
 10 11  1  1
 10 12  1  0
 12 13  1  1
 12 14  1  0
 14 15  1  0
 15 16  1  0
 16 17  1  6
 16 18  1  0
 18 19  1  0
 19 20  1  0
 20 21  1  0
M  RAD  1   3   2
M  END
>  <docking_score>  (2) 
-3.25

$$$$

     RDKit          3D

 21 20  0  0  0  0  0  0  0  0999 V2000
   20.6340   -2.1930   -5.0954 O   0  0  0  0  0  0  0  0  0  0  0  0
   20.3373   -3.4148   -5.7160 C   0  0  0  0  0  0  0  0  0  0  0  0
   18.8905   -3.7791   -5.3593 C   0  0  0  0  0  3  0  0  0  0  0  0
   18.9223   -4.2360   -4.0033 N   0  0  0  0  0  0  0  0  0  0  0  0
   18.5387   -3.2516   -3.0364 C   0  0  2  0  0  0  0  0  0  0  0  0
   19.1823   -3.3999   -1.6955 C   0  0  0  0  0  0  0  0  0  0  0  0
   19.6565   -2.2044   -1.1945 O   0  0  0  0  0  0  0  0  0  0  0  0
   17.0263   -3.3264   -2.8548 C   0  0  1  0  0  0  0  0  0  0  0  0
   16.7762   -3.6667   -1.5082 O   0  0  0  0  0  0  0  0  0  0  0  0
   16.5189   -1.9139   -3.1442 C   0  0  2  0  0  0  0  0  0  0  0  0
   15.8663   -1.4668   -1.9704 O   0  0  0  0  0  0  0  0  0  0  0  0
   15.4546   -2.0388   -4.2113 C   0  0  1  0  0  0  0  0  0  0  0  0
   16.0642   -1.2397   -5.6771 Cl  0  0  0  0  0  0  0  0  0  0  0  0
   15.2018   -3.5056   -4.4594 C   0  0  0  0  0  0  0  0  0  0  0  0
   15.3795   -3.7868   -5.8118 O   0  0  0  0  0  0  0  0  0  0  0  0
   15.2939   -5.1619   -6.0331 C   0  0  2  0  0  0  0  0  0  0  0  0
   13.8826   -5.4449   -6.5589 C   0  0  0  0  0  0  0  0  0  0  0  0
   15.3731   -5.9118   -4.6996 C   0  0  0  0  0  0  0  0  0  0  0  0
   16.6334   -6.4975   -4.6357 O   0  0  0  0  0  0  0  0  0  0  0  0
   16.6858   -7.6441   -5.4256 C   0  0  0  0  0  0  0  0  0  0  0  0
   15.7747   -8.5813   -5.0418 F   0  0  0  0  0  0  0  0  0  0  0  0
  1  2  1  0
  2  3  1  0
  3  4  1  0
  4  5  1  0
  5  6  1  1
  6  7  1  0
  5  8  1  0
  8  9  1  1
  8 10  1  0
 10 11  1  1
 10 12  1  0
 12 13  1  6
 12 14  1  0
 14 15  1  0
 15 16  1  0
 16 17  1  1
 16 18  1  0
 18 19  1  0
 19 20  1  0
 20 21  1  0
M  RAD  1   3   2
M  END
>  <docking_score>  (3) 
-3.2320000000000002

$$$$
