
     RDKit          3D

  9  9  0  0  0  0  0  0  0  0999 V2000
    5.9542    0.8160   -6.5964 C   0  0  0  0  0  0  0  0  0  0  0  0
    7.1976    0.6005   -6.0352 O   0  0  0  0  0  0  0  0  0  0  0  0
    7.2415   -0.5105   -5.2152 C   0  0  0  0  0  3  0  0  0  0  0  0
    6.8794   -1.6856   -5.8530 O   0  0  0  0  0  0  0  0  0  0  0  0
    5.6868   -1.5534   -6.5501 C   0  0  2  0  0  0  0  0  0  0  0  0
    4.9134   -2.8513   -6.5532 C   0  0  0  0  0  0  0  0  0  0  0  0
    5.7225   -3.7893   -7.2211 O   0  0  0  0  0  0  0  0  0  0  0  0
    5.9713   -1.0593   -7.9516 C   0  0  0  0  0  3  0  0  0  0  0  0
    5.9404    0.3343   -7.9050 O   0  0  0  0  0  0  0  0  0  0  0  0
  1  2  1  0
  2  3  1  0
  3  4  1  0
  4  5  1  0
  5  6  1  6
  6  7  1  0
  5  8  1  0
  8  9  1  0
  9  1  1  0
M  RAD  2   3   2   8   2
M  END
>  <docking_score>  (1) 
-4.0579999999999998

$$$$

     RDKit          3D

  9  9  0  0  0  0  0  0  0  0999 V2000
   16.4439   -3.8514   -4.0148 C   0  0  0  0  0  0  0  0  0  0  0  0
   16.0923   -3.3026   -2.7971 O   0  0  0  0  0  0  0  0  0  0  0  0
   16.0396   -1.9222   -2.8150 C   0  0  0  0  0  3  0  0  0  0  0  0
   15.1587   -1.4127   -3.7547 O   0  0  0  0  0  0  0  0  0  0  0  0
   15.3475   -1.9801   -5.0069 C   0  0  2  0  0  0  0  0  0  0  0  0
   15.0403   -0.9879   -6.1041 C   0  0  0  0  0  0  0  0  0  0  0  0
   14.5950    0.1826   -5.4621 O   0  0  0  0  0  0  0  0  0  0  0  0
   14.5104   -3.2348   -5.1260 C   0  0  0  0  0  3  0  0  0  0  0  0
   15.2996   -4.2938   -4.6778 O   0  0  0  0  0  0  0  0  0  0  0  0
  1  2  1  0
  2  3  1  0
  3  4  1  0
  4  5  1  0
  5  6  1  6
  6  7  1  0
  5  8  1  0
  8  9  1  0
  9  1  1  0
M  RAD  2   3   2   8   2
M  END
>  <docking_score>  (2) 
-3.1259999999999999

$$$$

     RDKit          3D

  9  9  0  0  0  0  0  0  0  0999 V2000
   16.5075   -4.3157   -1.9308 C   0  0  0  0  0  0  0  0  0  0  0  0
   16.9222   -5.2989   -2.8077 O   0  0  0  0  0  0  0  0  0  0  0  0
   16.1279   -5.3964   -3.9339 C   0  0  0  0  0  3  0  0  0  0  0  0
   16.0466   -4.2193   -4.6594 O   0  0  0  0  0  0  0  0  0  0  0  0
   15.7412   -3.1314   -3.8539 C   0  0  2  0  0  0  0  0  0  0  0  0
   14.9116   -2.1162   -4.6047 C   0  0  0  0  0  0  0  0  0  0  0  0
   14.6128   -1.0946   -3.6840 O   0  0  0  0  0  0  0  0  0  0  0  0
   17.0184   -2.5294   -3.3099 C   0  0  0  0  0  3  0  0  0  0  0  0
   17.2891   -3.1737   -2.1029 O   0  0  0  0  0  0  0  0  0  0  0  0
  1  2  1  0
  2  3  1  0
  3  4  1  0
  4  5  1  0
  5  6  1  6
  6  7  1  0
  5  8  1  0
  8  9  1  0
  9  1  1  0
M  RAD  2   3   2   8   2
M  END
>  <docking_score>  (3) 
-3.0609999999999999

$$$$
