
     RDKit          3D

 26 27  0  0  0  0  0  0  0  0999 V2000
   15.4124   -3.0336   -3.8568 C   0  0  0  0  0  0  0  0  0  0  0  0
   15.5096   -1.8540   -3.1531 O   0  0  0  0  0  0  0  0  0  0  0  0
   16.7023   -1.7206   -2.2593 C   0  0  0  0  0  0  0  0  0  0  0  0
   17.8992   -1.9252   -2.9900 C   0  0  0  0  0  0  0  0  0  0  0  0
   17.8389   -2.1680   -4.4179 C   0  0  0  0  0  0  0  0  0  0  0  0
   18.2149   -1.4949   -5.4563 C   0  0  0  0  0  0  0  0  0  0  0  0
   17.9272   -2.0314   -6.7982 N   0  0  0  0  0  0  0  0  0  0  0  0
   16.4592   -1.9313   -7.1766 C   0  0  0  0  0  3  0  0  0  0  0  0
   15.6156   -1.6737   -5.9585 C   0  0  1  0  0  0  0  0  0  0  0  0
   14.5517   -0.8357   -6.1734 O   0  0  0  0  0  0  0  0  0  0  0  0
   15.1110   -2.9474   -5.3194 C   0  0  1  0  0  0  0  0  0  0  0  0
   15.6458   -4.1510   -6.1142 C   0  0  1  0  0  0  0  0  0  0  0  0
   15.5384   -3.9224   -7.4784 O   0  0  0  0  0  0  0  0  0  0  0  0
   17.1753   -4.1511   -5.8586 C   0  0  0  0  0  3  0  0  0  0  0  0
   17.4182   -3.6746   -4.5135 C   0  0  1  0  0  0  0  0  0  0  0  0
   18.4913   -4.3642   -3.9379 O   0  0  0  0  0  0  0  0  0  0  0  0
   18.0366   -5.5610   -3.3422 C   0  0  0  0  0  0  0  0  0  0  0  0
   18.6723   -6.5341   -3.7534 O   0  0  0  0  0  0  0  0  0  0  0  0
   18.9251   -7.7098   -3.7995 O   0  0  0  0  0  0  0  0  0  0  0  0
   18.3780   -8.2821   -5.0053 C   0  0  0  0  0  0  0  0  0  0  0  0
   19.4644   -8.0104   -6.0135 C   0  0  0  0  0  0  0  0  0  0  0  0
   19.1735   -7.0829   -7.0696 C   0  0  0  0  0  0  0  0  0  0  0  0
   18.5152   -7.4801   -8.2797 C   0  0  0  0  0  3  0  0  0  0  0  0
   17.3124   -6.7518   -8.7146 C   0  0  0  0  0  2  0  0  0  0  0  0
   19.1134   -0.2812   -5.2630 C   0  0  0  0  0  3  0  0  0  0  0  0
   20.2985   -0.6898   -5.8965 O   0  0  0  0  0  0  0  0  0  0  0  0
  1  2  1  0
  2  3  1  0
  3  4  2  3
  4  5  1  0
  5  6  2  3
  6  7  1  0
  7  8  1  0
  8  9  1  0
  9 10  1  6
  9 11  1  0
 11 12  1  0
 12 13  1  6
 12 14  1  0
 14 15  1  0
 15 16  1  6
 16 17  1  0
 17 18  1  0
 18 19  1  0
 19 20  1  0
 20 21  1  0
 21 22  1  0
 22 23  1  0
 23 24  1  0
  6 25  1  0
 25 26  1  0
 11  1  1  1
 15  5  1  0
M  RAD  5   8   2  14   2  23   2  24   3  25   2
M  END
>  <docking_score>  (1) 
-3.9420000000000002

$$$$

     RDKit          3D

 26 27  0  0  0  0  0  0  0  0999 V2000
   14.3559   -2.8125   -5.0046 C   0  0  0  0  0  0  0  0  0  0  0  0
   14.2600   -1.8606   -5.9949 O   0  0  0  0  0  0  0  0  0  0  0  0
   14.9782   -0.5732   -5.7383 C   0  0  0  0  0  0  0  0  0  0  0  0
   16.3461   -0.8124   -5.4553 C   0  0  0  0  0  0  0  0  0  0  0  0
   16.8643   -2.1657   -5.4965 C   0  0  0  0  0  0  0  0  0  0  0  0
   17.6996   -2.7805   -6.2692 C   0  0  0  0  0  0  0  0  0  0  0  0
   17.9490   -4.2166   -6.0528 N   0  0  0  0  0  0  0  0  0  0  0  0
   16.7887   -5.0943   -6.4903 C   0  0  0  0  0  3  0  0  0  0  0  0
   15.5420   -4.2723   -6.6689 C   0  0  1  0  0  0  0  0  0  0  0  0
   14.7473   -4.6686   -7.7138 O   0  0  0  0  0  0  0  0  0  0  0  0
   14.7011   -4.2091   -5.4142 C   0  0  1  0  0  0  0  0  0  0  0  0
   15.4043   -5.0045   -4.3010 C   0  0  1  0  0  0  0  0  0  0  0  0
   15.8971   -6.2040   -4.7941 O   0  0  0  0  0  0  0  0  0  0  0  0
   16.6808   -4.1879   -3.9715 C   0  0  0  0  0  3  0  0  0  0  0  0
   16.3839   -2.7809   -4.1376 C   0  0  1  0  0  0  0  0  0  0  0  0
   17.0503   -2.0238   -3.1674 O   0  0  0  0  0  0  0  0  0  0  0  0
   18.0992   -2.7783   -2.5978 C   0  0  0  0  0  0  0  0  0  0  0  0
   19.1867   -2.2177   -2.7505 O   0  0  0  0  0  0  0  0  0  0  0  0
   20.3609   -2.2060   -3.0136 O   0  0  0  0  0  0  0  0  0  0  0  0
   20.6849   -3.3278   -3.8606 C   0  0  0  0  0  0  0  0  0  0  0  0
   21.3825   -4.2622   -2.9063 C   0  0  0  0  0  0  0  0  0  0  0  0
   20.8716   -5.5988   -2.7931 C   0  0  0  0  0  0  0  0  0  0  0  0
   19.6831   -6.0258   -3.4719 C   0  0  0  0  0  3  0  0  0  0  0  0
   19.5493   -7.4379   -3.8649 C   0  0  0  0  0  2  0  0  0  0  0  0
   18.5440   -1.9659   -7.2392 C   0  0  0  0  0  3  0  0  0  0  0  0
   18.4113   -2.6984   -8.4302 O   0  0  0  0  0  0  0  0  0  0  0  0
  1  2  1  0
  2  3  1  0
  3  4  2  3
  4  5  1  0
  5  6  2  3
  6  7  1  0
  7  8  1  0
  8  9  1  0
  9 10  1  6
  9 11  1  0
 11 12  1  0
 12 13  1  6
 12 14  1  0
 14 15  1  0
 15 16  1  1
 16 17  1  0
 17 18  1  0
 18 19  1  0
 19 20  1  0
 20 21  1  0
 21 22  1  0
 22 23  1  0
 23 24  1  0
  6 25  1  0
 25 26  1  0
 11  1  1  1
 15  5  1  0
M  RAD  5   8   2  14   2  23   2  24   3  25   2
M  END
>  <docking_score>  (2) 
-3.879

$$$$

     RDKit          3D

 26 27  0  0  0  0  0  0  0  0999 V2000
   20.2820   -4.1839   -3.3308 C   0  0  0  0  0  0  0  0  0  0  0  0
   19.9382   -4.2338   -1.9984 O   0  0  0  0  0  0  0  0  0  0  0  0
   20.0564   -2.9478   -1.2425 C   0  0  0  0  0  0  0  0  0  0  0  0
   19.3080   -1.9251   -1.8770 C   0  0  0  0  0  0  0  0  0  0  0  0
   18.5313   -2.2306   -3.0623 C   0  0  0  0  0  0  0  0  0  0  0  0
   17.2636   -2.2683   -3.3159 C   0  0  0  0  0  0  0  0  0  0  0  0
   16.8147   -2.6966   -4.6525 N   0  0  0  0  0  0  0  0  0  0  0  0
   16.9778   -4.1891   -4.8846 C   0  0  0  0  0  3  0  0  0  0  0  0
   17.9016   -4.7859   -3.8588 C   0  0  1  0  0  0  0  0  0  0  0  0
   17.5509   -6.0456   -3.4458 O   0  0  0  0  0  0  0  0  0  0  0  0
   19.3429   -4.8064   -4.3146 C   0  0  1  0  0  0  0  0  0  0  0  0
   19.4333   -4.1737   -5.7138 C   0  0  1  0  0  0  0  0  0  0  0  0
   18.4016   -4.6273   -6.5229 O   0  0  0  0  0  0  0  0  0  0  0  0
   19.1011   -2.6745   -5.4969 C   0  0  0  0  0  3  0  0  0  0  0  0
   19.6068   -2.2729   -4.2013 C   0  0  1  0  0  0  0  0  0  0  0  0
   20.0978   -0.9634   -4.2538 O   0  0  0  0  0  0  0  0  0  0  0  0
   20.0475   -0.4781   -5.5789 C   0  0  0  0  0  0  0  0  0  0  0  0
   20.1934    0.7457   -5.6121 O   0  0  0  0  0  0  0  0  0  0  0  0
   20.7406    1.7706   -5.2984 O   0  0  0  0  0  0  0  0  0  0  0  0
   20.5790    2.7523   -6.3428 C   0  0  0  0  0  0  0  0  0  0  0  0
   19.5745    3.7011   -5.7418 C   0  0  0  0  0  0  0  0  0  0  0  0
   18.7504    4.4545   -6.6436 C   0  0  0  0  0  0  0  0  0  0  0  0
   18.5126    5.8583   -6.4746 C   0  0  0  0  0  3  0  0  0  0  0  0
   17.6511    6.3123   -5.3710 C   0  0  0  0  0  2  0  0  0  0  0  0
   16.2909   -1.6809   -2.3027 C   0  0  0  0  0  3  0  0  0  0  0  0
   16.1269   -2.7461   -1.4020 O   0  0  0  0  0  0  0  0  0  0  0  0
  1  2  1  0
  2  3  1  0
  3  4  2  3
  4  5  1  0
  5  6  2  3
  6  7  1  0
  7  8  1  0
  8  9  1  0
  9 10  1  6
  9 11  1  0
 11 12  1  0
 12 13  1  6
 12 14  1  0
 14 15  1  0
 15 16  1  6
 16 17  1  0
 17 18  1  0
 18 19  1  0
 19 20  1  0
 20 21  1  0
 21 22  1  0
 22 23  1  0
 23 24  1  0
  6 25  1  0
 25 26  1  0
 11  1  1  1
 15  5  1  0
M  RAD  5   8   2  14   2  23   2  24   3  25   2
M  END
>  <docking_score>  (3) 
-3.8679999999999999

$$$$
