
     RDKit          3D

 19 20  0  0  0  0  0  0  0  0999 V2000
   13.7453    0.0564   -4.2484 C   0  0  0  0  0  0  0  0  0  0  0  0
   14.5984   -1.1151   -3.9780 O   0  0  0  0  0  0  0  0  0  0  0  0
   14.2518   -1.8822   -5.2263 C   0  0  0  0  0  3  0  0  0  0  0  0
   14.9573   -3.0846   -4.9607 O   0  0  0  0  0  0  0  0  0  0  0  0
   15.1596   -3.8592   -6.0853 C   0  0  2  0  0  0  0  0  0  0  0  0
   14.0756   -5.0099   -5.9525 C   0  0  0  0  0  0  0  0  0  0  0  0
   16.4779   -4.5818   -5.9525 C   0  0  0  0  0  3  0  0  0  0  0  0
   17.3417   -4.0042   -4.7632 C   0  0  1  0  0  0  0  0  0  0  0  0
   17.6124   -5.0829   -3.8182 C   0  0  1  0  0  0  0  0  0  0  0  0
   17.6739   -6.4489   -4.1988 C   0  0  0  0  0  0  0  0  0  0  0  0
   18.7695   -7.1505   -4.6836 C   0  0  0  0  0  0  0  0  0  0  0  0
   18.6218   -8.5725   -5.0132 C   0  0  0  0  0  0  0  0  0  0  0  0
   18.6819   -3.8497   -5.1458 O   0  0  0  0  0  0  0  0  0  0  0  0
   18.9830   -4.4193   -3.8987 C   0  0  1  0  0  0  0  0  0  0  0  0
   19.1486   -3.3340   -2.8343 C   0  0  1  0  0  0  0  0  0  0  0  0
   19.4540   -3.9817   -1.6160 O   0  0  0  0  0  0  0  0  0  0  0  0
   19.9010   -2.9195   -0.7998 C   0  0  0  0  0  3  0  0  0  0  0  0
   20.6551   -2.0220   -1.8038 C   0  0  0  0  0  0  0  0  0  0  0  0
   20.2476   -2.4955   -3.0444 O   0  0  0  0  0  0  0  0  0  0  0  0
  1  2  1  0
  2  3  1  0
  3  4  1  0
  4  5  1  0
  5  6  1  1
  5  7  1  0
  8  7  1  6
  8  9  1  0
  9 10  1  6
 10 11  2  3
 11 12  1  0
  8 13  1  0
 14 13  1  6
 14 15  1  0
 15 16  1  1
 16 17  1  0
 17 18  1  0
 18 19  1  0
 14  9  1  0
 19 15  1  0
M  RAD  3   3   2   7   2  17   2
M  END
>  <docking_score>  (1) 
-3.6139999999999999

$$$$

     RDKit          3D

 19 20  0  0  0  0  0  0  0  0999 V2000
   17.7426   -5.6747   -3.3299 C   0  0  0  0  0  0  0  0  0  0  0  0
   18.6920   -6.8022   -3.3062 O   0  0  0  0  0  0  0  0  0  0  0  0
   18.3597   -7.3462   -4.6701 C   0  0  0  0  0  3  0  0  0  0  0  0
   17.1947   -6.5836   -4.9443 O   0  0  0  0  0  0  0  0  0  0  0  0
   16.5344   -6.9865   -6.0876 C   0  0  2  0  0  0  0  0  0  0  0  0
   17.6018   -7.8829   -6.8454 C   0  0  0  0  0  0  0  0  0  0  0  0
   16.3495   -5.7937   -6.9936 C   0  0  0  0  0  3  0  0  0  0  0  0
   15.7086   -4.5721   -6.2248 C   0  0  1  0  0  0  0  0  0  0  0  0
   16.6391   -3.4490   -6.2780 C   0  0  1  0  0  0  0  0  0  0  0  0
   17.5768   -3.2691   -7.3282 C   0  0  0  0  0  0  0  0  0  0  0  0
   18.4027   -2.1765   -7.5561 C   0  0  0  0  0  0  0  0  0  0  0  0
   19.3143   -2.1939   -8.7055 C   0  0  0  0  0  0  0  0  0  0  0  0
   14.7291   -3.9449   -7.0083 O   0  0  0  0  0  0  0  0  0  0  0  0
   15.3205   -2.7456   -6.5812 C   0  0  1  0  0  0  0  0  0  0  0  0
   14.6471   -2.2341   -5.3071 C   0  0  1  0  0  0  0  0  0  0  0  0
   15.6726   -1.8694   -4.4057 O   0  0  0  0  0  0  0  0  0  0  0  0
   14.9789   -1.1253   -3.4264 C   0  0  0  0  0  3  0  0  0  0  0  0
   13.9150   -0.3832   -4.2628 C   0  0  0  0  0  0  0  0  0  0  0  0
   13.9272   -1.0483   -5.4821 O   0  0  0  0  0  0  0  0  0  0  0  0
  1  2  1  0
  2  3  1  0
  3  4  1  0
  4  5  1  0
  5  6  1  6
  5  7  1  0
  8  7  1  6
  8  9  1  0
  9 10  1  6
 10 11  2  3
 11 12  1  0
  8 13  1  0
 14 13  1  1
 14 15  1  0
 15 16  1  1
 16 17  1  0
 17 18  1  0
 18 19  1  0
 14  9  1  0
 19 15  1  0
M  RAD  3   3   2   7   2  17   2
M  END
>  <docking_score>  (2) 
-3.532

$$$$

     RDKit          3D

 19 20  0  0  0  0  0  0  0  0999 V2000
   20.6006   -0.0614   -2.3731 C   0  0  0  0  0  0  0  0  0  0  0  0
   19.3973   -0.8876   -2.1667 O   0  0  0  0  0  0  0  0  0  0  0  0
   20.1136   -2.1661   -1.8216 C   0  0  0  0  0  3  0  0  0  0  0  0
   19.0097   -3.0579   -1.8305 O   0  0  0  0  0  0  0  0  0  0  0  0
   19.3169   -4.3026   -2.3422 C   0  0  2  0  0  0  0  0  0  0  0  0
   20.5310   -4.0196   -3.3234 C   0  0  0  0  0  0  0  0  0  0  0  0
   18.2021   -4.7453   -3.2581 C   0  0  0  0  0  3  0  0  0  0  0  0
   17.2668   -3.5388   -3.6627 C   0  0  1  0  0  0  0  0  0  0  0  0
   16.7311   -3.7923   -4.9964 C   0  0  1  0  0  0  0  0  0  0  0  0
   16.5446   -5.0979   -5.5209 C   0  0  0  0  0  0  0  0  0  0  0  0
   17.4815   -5.9055   -6.1514 C   0  0  0  0  0  0  0  0  0  0  0  0
   17.0823   -7.2384   -6.6168 C   0  0  0  0  0  0  0  0  0  0  0  0
   16.0230   -3.6318   -3.0215 O   0  0  0  0  0  0  0  0  0  0  0  0
   15.4827   -3.2982   -4.2734 C   0  0  1  0  0  0  0  0  0  0  0  0
   15.3162   -1.7837   -4.4044 C   0  0  1  0  0  0  0  0  0  0  0  0
   15.5577   -1.4486   -5.7559 O   0  0  0  0  0  0  0  0  0  0  0  0
   15.0708   -0.1259   -5.8425 C   0  0  0  0  0  3  0  0  0  0  0  0
   13.8453   -0.1595   -4.9050 C   0  0  0  0  0  0  0  0  0  0  0  0
   14.0107   -1.3347   -4.1834 O   0  0  0  0  0  0  0  0  0  0  0  0
  1  2  1  0
  2  3  1  0
  3  4  1  0
  4  5  1  0
  5  6  1  6
  5  7  1  0
  8  7  1  1
  8  9  1  0
  9 10  1  1
 10 11  2  3
 11 12  1  0
  8 13  1  0
 14 13  1  1
 14 15  1  0
 15 16  1  6
 16 17  1  0
 17 18  1  0
 18 19  1  0
 14  9  1  0
 19 15  1  0
M  RAD  3   3   2   7   2  17   2
M  END
>  <docking_score>  (3) 
-3.52

$$$$
