
     RDKit          3D

 21 20  0  0  0  0  0  0  0  0999 V2000
   17.3403   -3.2271   -7.3327 C   0  0  0  0  0  0  0  0  0  0  0  0
   18.3435   -2.5341   -6.4071 C   0  0  0  0  0  0  0  0  0  0  0  0
   19.6569   -2.4091   -7.1474 C   0  0  0  0  0  0  0  0  0  0  0  0
   17.7545   -1.1707   -6.0966 C   0  0  0  0  0  0  0  0  0  0  0  0
   18.0221   -0.8869   -4.6352 C   0  0  0  0  0  0  0  0  0  0  0  0
   18.5093   -2.1406   -3.9065 C   0  0  0  0  0  0  0  0  0  0  0  0
   17.8990   -2.0627   -2.5038 C   0  0  1  0  0  0  0  0  0  0  0  0
   16.3869   -1.8689   -2.5957 C   0  0  0  0  0  0  0  0  0  0  0  0
   18.1152   -3.4281   -1.8733 C   0  0  0  0  0  3  0  0  0  0  0  0
   16.8674   -4.2431   -2.0074 C   0  0  0  0  0  0  0  0  0  0  0  0
   17.2423   -5.5357   -2.7341 C   0  0  0  0  0  0  0  0  0  0  0  0
   17.1988   -5.2339   -4.2371 C   0  0  2  0  0  0  0  0  0  0  0  0
   15.9972   -5.9102   -4.8647 C   0  0  0  0  0  0  0  0  0  0  0  0
   18.4403   -5.8555   -4.8321 C   0  0  0  0  0  0  0  0  0  0  0  0
   19.4459   -6.1869   -3.7378 C   0  0  2  0  0  0  0  0  0  0  0  0
   20.6064   -5.2556   -3.8624 C   0  0  0  0  0  0  0  0  0  0  0  0
   19.8208   -7.6450   -3.8368 C   0  0  0  0  0  0  0  0  0  0  0  0
   19.2347   -8.2201   -5.1038 C   0  0  0  0  0  0  0  0  0  0  0  0
   18.1082   -8.9950   -4.7415 O   0  0  0  0  0  0  0  0  0  0  0  0
   17.2034   -9.3277   -5.7629 C   0  0  0  0  0  0  0  0  0  0  0  0
   17.5895   -9.3482   -6.9448 O   0  0  0  0  0  0  0  0  0  0  0  0
  1  2  1  0
  2  3  1  0
  2  4  1  0
  4  5  1  0
  5  6  1  0
  6  7  1  0
  7  8  1  6
  7  9  1  0
  9 10  1  0
 10 11  1  0
 11 12  1  0
 12 13  1  6
 12 14  1  0
 14 15  1  0
 15 16  1  6
 15 17  1  0
 17 18  1  0
 18 19  1  0
 19 20  1  0
 20 21  2  0
M  RAD  1   9   2
M  END
>  <docking_score>  (1) 
-3.04

$$$$

     RDKit          3D

 21 20  0  0  0  0  0  0  0  0999 V2000
   15.0247   -6.4143   -4.2799 C   0  0  0  0  0  0  0  0  0  0  0  0
   15.4577   -7.0275   -5.6141 C   0  0  0  0  0  0  0  0  0  0  0  0
   15.5334   -5.9170   -6.6388 C   0  0  0  0  0  0  0  0  0  0  0  0
   16.8221   -7.6441   -5.3687 C   0  0  0  0  0  0  0  0  0  0  0  0
   17.8246   -6.8583   -6.1845 C   0  0  0  0  0  0  0  0  0  0  0  0
   18.9259   -6.2744   -5.2977 C   0  0  0  0  0  0  0  0  0  0  0  0
   18.9820   -7.1802   -4.0638 C   0  0  1  0  0  0  0  0  0  0  0  0
   20.3857   -7.7576   -3.8958 C   0  0  0  0  0  0  0  0  0  0  0  0
   18.7478   -6.2757   -2.8656 C   0  0  0  0  0  3  0  0  0  0  0  0
   19.3862   -4.9449   -3.1125 C   0  0  0  0  0  0  0  0  0  0  0  0
   18.9375   -4.0082   -1.9897 C   0  0  0  0  0  0  0  0  0  0  0  0
   17.9473   -3.0121   -2.6054 C   0  0  2  0  0  0  0  0  0  0  0  0
   16.5523   -3.6029   -2.6032 C   0  0  0  0  0  0  0  0  0  0  0  0
   18.3676   -2.8288   -4.0446 C   0  0  0  0  0  0  0  0  0  0  0  0
   17.1455   -2.6848   -4.9415 C   0  0  2  0  0  0  0  0  0  0  0  0
   17.5078   -3.1470   -6.3144 C   0  0  0  0  0  0  0  0  0  0  0  0
   16.6584   -1.2579   -4.8871 C   0  0  0  0  0  0  0  0  0  0  0  0
   15.8175   -0.9768   -6.1092 C   0  0  0  0  0  0  0  0  0  0  0  0
   14.6631   -0.2791   -5.6837 O   0  0  0  0  0  0  0  0  0  0  0  0
   14.0781   -0.6853   -4.4731 C   0  0  0  0  0  0  0  0  0  0  0  0
   13.0466   -0.1213   -4.0680 O   0  0  0  0  0  0  0  0  0  0  0  0
  1  2  1  0
  2  3  1  0
  2  4  1  0
  4  5  1  0
  5  6  1  0
  6  7  1  0
  7  8  1  1
  7  9  1  0
  9 10  1  0
 10 11  1  0
 11 12  1  0
 12 13  1  6
 12 14  1  0
 14 15  1  0
 15 16  1  6
 15 17  1  0
 17 18  1  0
 18 19  1  0
 19 20  1  0
 20 21  2  0
M  RAD  1   9   2
M  END
>  <docking_score>  (2) 
-2.9390000000000001

$$$$

     RDKit          3D

 21 20  0  0  0  0  0  0  0  0999 V2000
   13.8847   -0.7344   -4.5878 C   0  0  0  0  0  0  0  0  0  0  0  0
   14.8817   -1.8327   -4.9664 C   0  0  0  0  0  0  0  0  0  0  0  0
   14.1012   -3.0959   -5.2561 C   0  0  0  0  0  0  0  0  0  0  0  0
   15.6029   -1.3350   -6.2050 C   0  0  0  0  0  0  0  0  0  0  0  0
   17.0668   -1.1989   -5.8494 C   0  0  0  0  0  0  0  0  0  0  0  0
   17.7201   -2.5682   -5.6540 C   0  0  0  0  0  0  0  0  0  0  0  0
   19.2200   -2.3408   -5.8655 C   0  0  1  0  0  0  0  0  0  0  0  0
   19.4636   -1.6224   -7.1909 C   0  0  0  0  0  0  0  0  0  0  0  0
   19.6590   -1.3796   -4.7737 C   0  0  0  0  0  3  0  0  0  0  0  0
   20.8543   -1.9384   -4.0678 C   0  0  0  0  0  0  0  0  0  0  0  0
   20.4153   -2.3091   -2.6503 C   0  0  0  0  0  0  0  0  0  0  0  0
   19.6108   -3.6105   -2.7559 C   0  0  2  0  0  0  0  0  0  0  0  0
   18.4308   -3.5664   -1.8070 C   0  0  0  0  0  0  0  0  0  0  0  0
   20.5302   -4.7176   -2.2967 C   0  0  0  0  0  0  0  0  0  0  0  0
   20.4766   -5.8902   -3.2665 C   0  0  2  0  0  0  0  0  0  0  0  0
   20.9750   -5.4288   -4.5963 C   0  0  0  0  0  0  0  0  0  0  0  0
   19.0722   -6.4404   -3.2991 C   0  0  0  0  0  0  0  0  0  0  0  0
   18.7275   -6.8296   -4.7166 C   0  0  0  0  0  0  0  0  0  0  0  0
   17.3409   -7.1054   -4.7601 O   0  0  0  0  0  0  0  0  0  0  0  0
   16.4673   -6.0060   -4.7310 C   0  0  0  0  0  0  0  0  0  0  0  0
   15.7527   -5.8138   -3.7316 O   0  0  0  0  0  0  0  0  0  0  0  0
  1  2  1  0
  2  3  1  0
  2  4  1  0
  4  5  1  0
  5  6  1  0
  6  7  1  0
  7  8  1  6
  7  9  1  0
  9 10  1  0
 10 11  1  0
 11 12  1  0
 12 13  1  1
 12 14  1  0
 14 15  1  0
 15 16  1  6
 15 17  1  0
 17 18  1  0
 18 19  1  0
 19 20  1  0
 20 21  2  0
M  RAD  1   9   2
M  END
>  <docking_score>  (3) 
-2.766

$$$$
