
     RDKit          3D

 83 85  0  0  0  0  0  0  0  0999 V2000
   19.3964  -11.7548   -7.7517 C   0  0  0  0  0  0  0  0  0  0  0  0
   19.2750  -10.2415   -7.6081 C   0  0  0  0  0  0  0  0  0  0  0  0
   20.0323   -9.5901   -8.7387 C   0  0  0  0  0  0  0  0  0  0  0  0
   17.8085   -9.8732   -7.7073 C   0  0  0  0  0  0  0  0  0  0  0  0
   17.0714  -10.5429   -6.5434 C   0  0  0  0  0  0  0  0  0  0  0  0
   16.2714   -9.4653   -5.8435 C   0  0  0  0  0  0  0  0  0  0  0  0
   16.0007   -8.3501   -6.8056 C   0  0  1  0  0  0  0  0  0  0  0  0
   14.9184   -7.4432   -6.2990 C   0  0  0  0  0  0  0  0  0  0  0  0
   17.2649   -7.5981   -7.1570 C   0  0  0  0  0  3  0  0  0  0  0  0
   17.1529   -6.1588   -6.7820 C   0  0  0  0  0  0  0  0  0  0  0  0
   17.7972   -5.2364   -7.7919 C   0  0  0  0  0  0  0  0  0  0  0  0
   17.9650   -3.8452   -7.2837 C   0  0  0  0  0  3  0  0  0  0  0  0
   18.0106   -3.9016   -5.7696 C   0  0  0  0  0  0  0  0  0  0  0  0
   19.2475   -3.1950   -7.7509 C   0  0  0  0  0  3  0  0  0  0  0  0
   20.4332   -4.1211   -7.6073 C   0  0  0  0  0  0  0  0  0  0  0  0
   20.4423   -4.8421   -6.2773 C   0  0  2  0  0  0  0  0  0  0  0  0
   21.3786   -4.1607   -5.3026 C   0  0  0  0  0  0  0  0  0  0  0  0
   20.7883   -6.3082   -6.4376 C   0  0  0  0  0  0  0  0  0  0  0  0
   19.7605   -7.1147   -5.7011 C   0  0  0  0  0  0  0  0  0  0  0  0
   19.5166   -6.5955   -4.3008 C   0  0  2  0  0  0  0  0  0  0  0  0
   20.7876   -6.5351   -3.4847 C   0  0  0  0  0  0  0  0  0  0  0  0
   18.4065   -7.3082   -3.6059 C   0  0  0  0  0  0  0  0  0  0  0  0
   17.1945   -6.4700   -3.3448 C   0  0  0  0  0  0  0  0  0  0  0  0
   16.0016   -7.0536   -4.0221 C   0  0  0  0  0  0  0  0  0  0  0  0
   14.7790   -6.2022   -3.9877 C   0  0  2  0  0  0  0  0  0  0  0  0
   13.6313   -6.7500   -3.1487 C   0  0  0  0  0  0  0  0  0  0  0  0
   14.2481   -5.8533   -5.3143 N   0  0  0  0  0  0  0  0  0  0  0  0
   14.0159   -4.5203   -4.7984 C   0  0  0  0  0  0  0  0  0  0  0  0
   15.0351   -4.7499   -3.7367 C   0  0  2  0  0  0  0  0  0  0  0  0
   16.4285   -4.3062   -3.9728 C   0  0  0  0  0  0  0  0  0  0  0  0
   16.6644   -3.4632   -5.1726 C   0  0  2  0  0  0  0  0  0  0  0  0
   15.6503   -3.6042   -6.2604 C   0  0  0  0  0  0  0  0  0  0  0  0
   16.8141   -1.9957   -4.8560 C   0  0  2  0  0  0  0  0  0  0  0  0
   17.7977   -1.2860   -5.7193 C   0  0  1  0  0  0  0  0  0  0  0  0
   18.9435   -2.1245   -6.1840 C   0  0  0  0  0  0  0  0  0  0  0  0
   17.0686   -0.5945   -6.8452 C   0  0  0  0  0  0  0  0  0  0  0  0
   17.1578    0.8969   -6.6806 C   0  0  0  0  0  0  0  0  0  0  0  0
   18.6075    1.2773   -6.4834 C   0  0  0  0  0  0  0  0  0  0  0  0
   18.9592    2.4939   -7.2916 C   0  0  1  0  0  0  0  0  0  0  0  0
   19.2055    2.2038   -8.7393 C   0  0  0  0  0  0  0  0  0  0  0  0
   17.8698    3.5249   -7.0848 C   0  0  0  0  0  0  0  0  0  0  0  0
   18.0692    4.0822   -5.6786 C   0  0  0  0  0  0  0  0  0  0  0  0
   19.5507    4.4488   -5.5890 C   0  0  0  0  0  0  0  0  0  0  0  0
   19.7287    5.7375   -6.3661 C   0  0  1  0  0  0  0  0  0  0  0  0
   19.8164    5.4879   -7.8537 C   0  0  0  0  0  0  0  0  0  0  0  0
   18.5282    6.6189   -6.0213 C   0  0  0  0  0  3  0  0  0  0  0  0
   18.3955    6.5593   -4.5008 C   0  0  0  0  0  0  0  0  0  0  0  0
   19.7473    6.4304   -3.8774 C   0  0  0  0  0  0  0  0  0  0  0  0
   20.0485    6.9909   -2.7129 C   0  0  0  0  0  0  0  0  0  0  0  0
   21.3819    6.8853   -2.0601 C   0  0  0  0  0  0  0  0  0  0  0  0
   18.9877    7.7711   -2.0196 C   0  0  0  0  0  0  0  0  0  0  0  0
   19.6762    8.9526   -1.3577 C   0  0  0  0  0  0  0  0  0  0  0  0
   20.1790    8.5922    0.0192 C   0  0  0  0  0  0  0  0  0  0  0  0
   19.8070    9.7093    0.9782 C   0  0  0  0  0  0  0  0  0  0  0  0
   20.6321    9.6307    2.2222 C   0  0  0  0  0  0  0  0  0  0  0  0
   19.8835   10.2501    3.3850 C   0  0  0  0  0  0  0  0  0  0  0  0
   20.3135    9.5915    4.6956 C   0  0  0  0  0  3  0  0  0  0  0  0
   19.0509    9.2241    5.4713 C   0  0  0  0  0  0  0  0  0  0  0  0
   18.7808    7.7668    5.2073 C   0  0  0  0  0  0  0  0  0  0  0  0
   19.1718    6.9403    6.4105 C   0  0  1  0  0  0  0  0  0  0  0  0
   19.1825    7.7770    7.6564 C   0  0  0  0  0  0  0  0  0  0  0  0
   18.1524    5.8304    6.5913 C   0  0  0  0  0  0  0  0  0  0  0  0
   18.8054    4.4878    6.3379 C   0  0  0  0  0  0  0  0  0  0  0  0
   18.2617    3.4541    7.3043 C   0  0  0  0  0  0  0  0  0  0  0  0
   17.0625    2.7946    6.6552 C   0  0  2  0  0  0  0  0  0  0  0  0
   15.8388    2.9190    7.5300 C   0  0  0  0  0  0  0  0  0  0  0  0
   17.3567    1.3386    6.3944 C   0  0  0  0  0  0  0  0  0  0  0  0
   16.6257    0.4735    7.3762 C   0  0  0  0  0  0  0  0  0  0  0  0
   15.8316   -0.5663    6.5871 C   0  0  0  0  0  0  0  0  0  0  0  0
   16.6565   -1.8369    6.5663 C   0  0  0  0  0  0  0  0  0  0  0  0
   17.0157   -2.1422    5.1250 C   0  0  0  0  0  0  0  0  0  0  0  0
   15.9563   -3.0878    4.5736 C   0  0  0  0  0  0  0  0  0  0  0  0
   15.7986   -2.8073    3.1003 C   0  0  0  0  0  0  0  0  0  0  0  0
   17.1212   -3.1163    2.4104 C   0  0  1  0  0  0  0  0  0  0  0  0
   17.6302   -4.4367    2.9467 C   0  0  0  0  0  0  0  0  0  0  0  0
   16.8534   -3.1777    0.9295 C   0  0  0  0  0  3  0  0  0  0  0  0
   17.9011   -4.0622    0.2941 C   0  0  0  0  0  0  0  0  0  0  0  0
   18.7821   -3.2020   -0.6049 C   0  0  0  0  0  0  0  0  0  0  0  0
   17.9290   -2.1622   -1.2531 C   0  0  1  0  0  0  0  0  0  0  0  0
   17.9745   -0.8236   -0.5745 C   0  0  0  0  0  0  0  0  0  0  0  0
   18.2003   -2.0455   -2.7587 C   0  0  0  0  0  3  0  0  0  0  0  0
   16.9018   -1.6856   -3.4061 C   0  0  2  0  0  0  0  0  0  0  0  0
   15.6889   -2.1154   -2.6516 C   0  0  0  0  0  0  0  0  0  0  0  0
  1  2  1  0
  2  3  1  0
  2  4  1  0
  4  5  1  0
  5  6  1  0
  6  7  1  0
  7  8  1  1
  7  9  1  0
  9 10  1  0
 10 11  1  0
 11 12  1  0
 12 13  1  0
 12 14  1  0
 14 15  1  0
 15 16  1  0
 16 17  1  1
 16 18  1  0
 18 19  1  0
 19 20  1  0
 20 21  1  1
 20 22  1  0
 22 23  1  0
 23 24  1  0
 24 25  1  0
 25 26  1  1
 25 27  1  0
 27 28  1  0
 29 28  1  6
 29 30  1  0
 30 31  1  0
 31 32  1  6
 33 31  1  1
 33 34  1  0
 34 35  1  6
 34 36  1  0
 36 37  1  0
 37 38  1  0
 38 39  1  0
 39 40  1  6
 39 41  1  0
 41 42  1  0
 42 43  1  0
 43 44  1  0
 44 45  1  6
 44 46  1  0
 46 47  1  0
 47 48  1  0
 48 49  2  3
 49 50  1  0
 49 51  1  0
 51 52  1  0
 52 53  1  0
 53 54  1  0
 54 55  1  0
 55 56  1  0
 56 57  1  0
 57 58  1  0
 58 59  1  0
 59 60  1  0
 60 61  1  1
 60 62  1  0
 62 63  1  0
 63 64  1  0
 64 65  1  0
 65 66  1  1
 65 67  1  0
 67 68  1  0
 68 69  1  0
 69 70  1  0
 70 71  1  0
 71 72  1  0
 72 73  1  0
 73 74  1  0
 74 75  1  1
 74 76  1  0
 76 77  1  0
 77 78  1  0
 78 79  1  0
 79 80  1  1
 79 81  1  0
 81 82  1  0
 82 83  1  1
 31 13  1  0
 29 25  1  0
 82 33  1  0
M  RAD  7   9   2  12   2  14   2  46   2  57   2  76   2  81   2
M  END
>  <docking_score>  (1) 
159.83199999999999

$$$$
