
     RDKit          3D

 22 23  0  0  0  0  0  0  0  0999 V2000
   17.9051   -6.7941   -4.6995 C   0  0  0  0  0  0  0  0  0  0  0  0
   18.3379   -8.0538   -5.1299 O   0  0  0  0  0  0  0  0  0  0  0  0
   19.4780   -8.3496   -4.3965 C   0  0  0  0  0  3  0  0  0  0  0  0
   19.9691   -7.1704   -3.8800 O   0  0  0  0  0  0  0  0  0  0  0  0
   18.7970   -6.4928   -3.4930 C   0  0  1  0  0  0  0  0  0  0  0  0
   19.0148   -4.9875   -3.5050 C   0  0  0  0  0  0  0  0  0  0  0  0
   19.7506   -4.5083   -2.2853 C   0  0  0  0  0  3  0  0  0  0  0  0
   19.0753   -3.3470   -1.6028 C   0  0  0  0  0  3  0  0  0  0  0  0
   17.5735   -3.3581   -1.7844 C   0  0  0  0  0  3  0  0  0  0  0  0
   17.0460   -2.0769   -2.3421 C   0  0  0  0  0  3  0  0  0  0  0  0
   16.0840   -2.2517   -3.4670 C   0  0  2  0  0  0  0  0  0  0  0  0
   16.6617   -2.1695   -4.8237 C   0  0  1  0  0  0  0  0  0  0  0  0
   17.6127   -1.2193   -5.0260 O   0  0  0  0  0  0  0  0  0  0  0  0
   18.7993   -1.8828   -5.4159 C   0  0  0  0  0  0  0  0  0  0  0  0
   15.0025   -1.1967   -3.3477 C   0  0  0  0  0  0  0  0  0  0  0  0
   14.6809   -0.6799   -4.6020 O   0  0  0  0  0  0  0  0  0  0  0  0
   14.0547   -1.6044   -5.4215 C   0  0  0  0  0  0  0  0  0  0  0  0
   14.2642   -2.9004   -4.9737 O   0  0  0  0  0  0  0  0  0  0  0  0
   14.6804   -3.7260   -6.0171 C   0  0  2  0  0  0  0  0  0  0  0  0
   14.7977   -5.0292   -5.5361 O   0  0  0  0  0  0  0  0  0  0  0  0
   15.9407   -3.3618   -6.4968 O   0  0  0  0  0  0  0  0  0  0  0  0
   16.8194   -3.3457   -5.4904 O   0  0  0  0  0  0  0  0  0  0  0  0
  1  2  1  0
  2  3  1  0
  3  4  1  0
  4  5  1  0
  5  6  1  6
  6  7  1  0
  7  8  1  0
  8  9  1  0
  9 10  1  0
 11 10  1  1
 11 12  1  0
 12 13  1  1
 13 14  1  0
 11 15  1  0
 15 16  1  0
 16 17  1  0
 17 18  1  0
 18 19  1  0
 19 20  1  1
 19 21  1  0
 21 22  1  0
  5  1  1  0
 22 12  1  0
M  RAD  5   3   2   7   2   8   2   9   2  10   2
M  END
>  <docking_score>  (1) 
-4.3949999999999996

$$$$

     RDKit          3D

 22 23  0  0  0  0  0  0  0  0999 V2000
   15.0482   -0.8907   -6.0141 C   0  0  0  0  0  0  0  0  0  0  0  0
   14.0767   -1.2372   -5.0678 O   0  0  0  0  0  0  0  0  0  0  0  0
   14.1378   -2.6163   -4.9285 C   0  0  0  0  0  3  0  0  0  0  0  0
   14.7821   -3.1272   -6.0341 O   0  0  0  0  0  0  0  0  0  0  0  0
   15.8154   -2.1943   -6.2457 C   0  0  1  0  0  0  0  0  0  0  0  0
   16.2334   -2.1743   -7.7081 C   0  0  0  0  0  0  0  0  0  0  0  0
   17.7261   -2.2237   -7.8750 C   0  0  0  0  0  3  0  0  0  0  0  0
   18.4679   -2.2929   -6.5652 C   0  0  0  0  0  3  0  0  0  0  0  0
   19.5717   -3.3273   -6.5753 C   0  0  0  0  0  3  0  0  0  0  0  0
   19.0617   -4.7199   -6.7524 C   0  0  0  0  0  3  0  0  0  0  0  0
   18.0527   -5.1336   -5.7365 C   0  0  2  0  0  0  0  0  0  0  0  0
   18.5663   -5.9490   -4.6172 C   0  0  1  0  0  0  0  0  0  0  0  0
   19.4899   -6.8975   -4.9261 O   0  0  0  0  0  0  0  0  0  0  0  0
   19.4342   -7.8882   -3.9183 C   0  0  0  0  0  0  0  0  0  0  0  0
   16.9590   -5.9191   -6.4320 C   0  0  0  0  0  0  0  0  0  0  0  0
   16.5713   -7.0116   -5.6575 O   0  0  0  0  0  0  0  0  0  0  0  0
   15.9250   -6.6421   -4.4896 C   0  0  0  0  0  0  0  0  0  0  0  0
   16.1780   -5.3163   -4.1697 O   0  0  0  0  0  0  0  0  0  0  0  0
   16.5608   -5.1910   -2.8350 C   0  0  2  0  0  0  0  0  0  0  0  0
   16.7234   -3.8378   -2.5421 O   0  0  0  0  0  0  0  0  0  0  0  0
   17.7912   -5.8043   -2.5877 O   0  0  0  0  0  0  0  0  0  0  0  0
   18.7145   -5.3163   -3.4212 O   0  0  0  0  0  0  0  0  0  0  0  0
  1  2  1  0
  2  3  1  0
  3  4  1  0
  4  5  1  0
  5  6  1  6
  6  7  1  0
  7  8  1  0
  8  9  1  0
  9 10  1  0
 11 10  1  6
 11 12  1  0
 12 13  1  6
 13 14  1  0
 11 15  1  0
 15 16  1  0
 16 17  1  0
 17 18  1  0
 18 19  1  0
 19 20  1  6
 19 21  1  0
 21 22  1  0
  5  1  1  0
 22 12  1  0
M  RAD  5   3   2   7   2   8   2   9   2  10   2
M  END
>  <docking_score>  (2) 
-4.0510000000000002

$$$$

     RDKit          3D

 22 23  0  0  0  0  0  0  0  0999 V2000
   16.4086   -6.5064   -4.7862 C   0  0  0  0  0  0  0  0  0  0  0  0
   15.2136   -5.7842   -4.6872 O   0  0  0  0  0  0  0  0  0  0  0  0
   14.7359   -5.6352   -5.9813 C   0  0  0  0  0  3  0  0  0  0  0  0
   15.7840   -5.8525   -6.8490 O   0  0  0  0  0  0  0  0  0  0  0  0
   16.4557   -6.9374   -6.2537 C   0  0  1  0  0  0  0  0  0  0  0  0
   17.9274   -6.9376   -6.6380 C   0  0  0  0  0  0  0  0  0  0  0  0
   18.1729   -6.2549   -7.9542 C   0  0  0  0  0  3  0  0  0  0  0  0
   19.1766   -5.1347   -7.8636 C   0  0  0  0  0  3  0  0  0  0  0  0
   19.2889   -4.5651   -6.4667 C   0  0  0  0  0  3  0  0  0  0  0  0
   18.5354   -3.2866   -6.2979 C   0  0  0  0  0  3  0  0  0  0  0  0
   18.2927   -2.9047   -4.8778 C   0  0  2  0  0  0  0  0  0  0  0  0
   17.1139   -2.0481   -4.6364 C   0  0  1  0  0  0  0  0  0  0  0  0
   16.8796   -1.0621   -5.5426 O   0  0  0  0  0  0  0  0  0  0  0  0
   15.5314   -1.1758   -5.9542 C   0  0  0  0  0  0  0  0  0  0  0  0
   19.5182   -2.1830   -4.3541 C   0  0  0  0  0  0  0  0  0  0  0  0
   19.1470   -1.0977   -3.5616 O   0  0  0  0  0  0  0  0  0  0  0  0
   18.5414   -1.4784   -2.3756 C   0  0  0  0  0  0  0  0  0  0  0  0
   18.0815   -2.7855   -2.4398 O   0  0  0  0  0  0  0  0  0  0  0  0
   16.7627   -2.8711   -1.9960 C   0  0  2  0  0  0  0  0  0  0  0  0
   16.3753   -4.2102   -2.0021 O   0  0  0  0  0  0  0  0  0  0  0  0
   15.8835   -2.1966   -2.8463 O   0  0  0  0  0  0  0  0  0  0  0  0
   16.0222   -2.6538   -4.0941 O   0  0  0  0  0  0  0  0  0  0  0  0
  1  2  1  0
  2  3  1  0
  3  4  1  0
  4  5  1  0
  5  6  1  6
  6  7  1  0
  7  8  1  0
  8  9  1  0
  9 10  1  0
 11 10  1  6
 11 12  1  0
 12 13  1  6
 13 14  1  0
 11 15  1  0
 15 16  1  0
 16 17  1  0
 17 18  1  0
 18 19  1  0
 19 20  1  6
 19 21  1  0
 21 22  1  0
  5  1  1  0
 22 12  1  0
M  RAD  5   3   2   7   2   8   2   9   2  10   2
M  END
>  <docking_score>  (3) 
-3.7320000000000002

$$$$
