
     RDKit          3D

 31 33  0  0  0  0  0  0  0  0999 V2000
   15.2771   -0.7455   -1.3311 C   0  0  0  0  0  0  0  0  0  0  0  0
   14.9098   -1.0744   -2.6522 O   0  0  0  0  0  0  0  0  0  0  0  0
   15.8370   -1.6225   -3.5494 C   0  0  0  0  0  0  0  0  0  0  0  0
   16.9553   -2.2639   -3.0663 C   0  0  0  0  0  0  0  0  0  0  0  0
   17.8889   -2.8157   -3.9560 C   0  0  0  0  0  0  0  0  0  0  0  0
   17.6263   -2.6804   -5.2966 C   0  0  0  0  0  0  0  0  0  0  0  0
   16.4829   -2.0244   -5.7734 C   0  0  0  0  0  0  0  0  0  0  0  0
   15.5733   -1.4865   -4.8910 C   0  0  0  0  0  0  0  0  0  0  0  0
   14.3406   -0.7788   -5.3390 C   0  0  0  0  0  0  0  0  0  0  0  0
   18.6062   -3.2593   -6.2778 C   0  0  0  0  0  0  0  0  0  0  0  0
   18.5040   -2.5004   -7.5936 C   0  0  0  0  0  0  0  0  0  0  0  0
   18.6560   -1.0245   -7.2603 C   0  0  0  0  0  0  0  0  0  0  0  0
   19.5598   -0.9192   -6.0621 C   0  0  0  0  0  0  0  0  0  0  0  0
   20.4507   -1.8467   -5.8123 C   0  0  0  0  0  0  0  0  0  0  0  0
   21.3790   -1.9106   -4.7368 C   0  0  0  0  0  0  0  0  0  0  0  0
   21.1914   -2.2102   -3.4902 C   0  0  0  0  0  0  0  0  0  0  0  0
   20.0055   -2.5622   -2.8307 N   0  0  0  0  0  0  0  0  0  0  0  0
   19.0939   -3.5089   -3.4213 C   0  0  2  0  0  0  0  0  0  0  0  0
   19.7814   -4.2997   -4.4953 C   0  0  0  0  0  0  0  0  0  0  0  0
   19.9668   -5.7212   -4.1771 C   0  0  0  0  0  0  0  0  0  0  0  0
   18.9140   -6.4707   -3.9053 C   0  0  0  0  0  0  0  0  0  0  0  0
   19.1416   -7.8411   -3.6028 N   0  0  0  0  0  0  0  0  0  0  0  0
   18.3720   -8.8207   -4.3444 C   0  0  0  0  0  0  0  0  0  0  0  0
   18.3494   -8.4921   -5.7903 C   0  0  0  0  0  0  0  0  0  0  0  0
   17.3548   -7.7859   -6.3026 C   0  0  0  0  0  0  0  0  0  0  0  0
   16.2602   -7.3261   -5.4101 C   0  0  0  0  0  0  0  0  0  0  0  0
   15.7410   -5.9659   -5.7469 C   0  0  0  0  0  0  0  0  0  0  0  0
   15.7150   -5.6789   -7.2271 C   0  0  0  0  0  0  0  0  0  0  0  0
   17.0338   -5.9831   -7.8903 C   0  0  0  0  0  0  0  0  0  0  0  0
   17.3331   -7.4583   -7.7529 C   0  0  1  0  0  0  0  0  0  0  0  0
   18.5408   -7.7521   -8.3681 O   0  0  0  0  0  0  0  0  0  0  0  0
  1  2  1  0
  2  3  1  0
  3  4  2  0
  4  5  1  0
  5  6  2  0
  6  7  1  0
  7  8  2  0
  8  9  1  0
  6 10  1  0
 10 11  1  0
 11 12  1  0
 12 13  1  0
 13 14  2  3
 14 15  1  0
 15 16  2  3
 16 17  1  0
 17 18  1  0
 18 19  1  6
 19 20  1  0
 20 21  2  3
 21 22  1  0
 22 23  1  0
 23 24  1  0
 24 25  2  3
 25 26  1  0
 26 27  1  0
 27 28  1  0
 28 29  1  0
 29 30  1  0
 30 31  1  1
  8  3  1  0
 18  5  1  0
 30 25  1  0
M  END
>  <docking_score>  (1) 
-3.2389999999999999

$$$$

     RDKit          3D

 31 33  0  0  0  0  0  0  0  0999 V2000
   21.3190    2.0009   -4.1300 C   0  0  0  0  0  0  0  0  0  0  0  0
   21.3440    1.1022   -5.2164 O   0  0  0  0  0  0  0  0  0  0  0  0
   20.6564   -0.1183   -5.1661 C   0  0  0  0  0  0  0  0  0  0  0  0
   20.0271   -0.4982   -4.0020 C   0  0  0  0  0  0  0  0  0  0  0  0
   19.3364   -1.7177   -3.9418 C   0  0  0  0  0  0  0  0  0  0  0  0
   19.3275   -2.4847   -5.0802 C   0  0  0  0  0  0  0  0  0  0  0  0
   19.9732   -2.0843   -6.2582 C   0  0  0  0  0  0  0  0  0  0  0  0
   20.6482   -0.8854   -6.3060 C   0  0  0  0  0  0  0  0  0  0  0  0
   21.3523   -0.4075   -7.5295 C   0  0  0  0  0  0  0  0  0  0  0  0
   18.5973   -3.7978   -5.0504 C   0  0  0  0  0  0  0  0  0  0  0  0
   19.2032   -4.7306   -6.0898 C   0  0  0  0  0  0  0  0  0  0  0  0
   20.6997   -4.7704   -5.8225 C   0  0  0  0  0  0  0  0  0  0  0  0
   20.9031   -4.5827   -4.3436 C   0  0  0  0  0  0  0  0  0  0  0  0
   19.9728   -4.9331   -3.4904 C   0  0  0  0  0  0  0  0  0  0  0  0
   19.9931   -4.8294   -2.0721 C   0  0  0  0  0  0  0  0  0  0  0  0
   19.8476   -3.7917   -1.3099 C   0  0  0  0  0  0  0  0  0  0  0  0
   19.6258   -2.4538   -1.6647 N   0  0  0  0  0  0  0  0  0  0  0  0
   18.6578   -2.1169   -2.6774 C   0  0  2  0  0  0  0  0  0  0  0  0
   17.7194   -3.2647   -2.9090 C   0  0  0  0  0  0  0  0  0  0  0  0
   16.3187   -2.8717   -3.1086 C   0  0  0  0  0  0  0  0  0  0  0  0
   16.0403   -1.7748   -3.7891 C   0  0  0  0  0  0  0  0  0  0  0  0
   14.6703   -1.4337   -3.9570 N   0  0  0  0  0  0  0  0  0  0  0  0
   14.3241   -0.6282   -5.1116 C   0  0  0  0  0  0  0  0  0  0  0  0
   14.8715   -1.2222   -6.3553 C   0  0  0  0  0  0  0  0  0  0  0  0
   15.0249   -2.5320   -6.4624 C   0  0  0  0  0  0  0  0  0  0  0  0
   14.6416   -3.4004   -5.3200 C   0  0  0  0  0  0  0  0  0  0  0  0
   14.0258   -4.6983   -5.7315 C   0  0  0  0  0  0  0  0  0  0  0  0
   14.6238   -5.2789   -6.9882 C   0  0  0  0  0  0  0  0  0  0  0  0
   14.6782   -4.2746   -8.1107 C   0  0  0  0  0  0  0  0  0  0  0  0
   15.5750   -3.1258   -7.7097 C   0  0  1  0  0  0  0  0  0  0  0  0
   15.6403   -2.1991   -8.7394 O   0  0  0  0  0  0  0  0  0  0  0  0
  1  2  1  0
  2  3  1  0
  3  4  2  0
  4  5  1  0
  5  6  2  0
  6  7  1  0
  7  8  2  0
  8  9  1  0
  6 10  1  0
 10 11  1  0
 11 12  1  0
 12 13  1  0
 13 14  2  3
 14 15  1  0
 15 16  2  3
 16 17  1  0
 17 18  1  0
 18 19  1  6
 19 20  1  0
 20 21  2  3
 21 22  1  0
 22 23  1  0
 23 24  1  0
 24 25  2  3
 25 26  1  0
 26 27  1  0
 27 28  1  0
 28 29  1  0
 29 30  1  0
 30 31  1  6
  8  3  1  0
 18  5  1  0
 30 25  1  0
M  END
>  <docking_score>  (2) 
-2.2040000000000002

$$$$
