
     RDKit          3D

 58 64  0  0  0  0  0  0  0  0999 V2000
   15.7109   -1.2321   -5.0027 C   0  0  2  0  0  0  0  0  0  0  0  0
   16.2955   -1.6263   -3.8160 O   0  0  0  0  0  0  0  0  0  0  0  0
   17.6444   -1.6533   -3.5209 C   0  0  0  0  0  0  0  0  0  0  0  0
   18.0747   -1.1149   -2.4719 O   0  0  0  0  0  0  0  0  0  0  0  0
   18.5832   -2.3084   -4.4266 C   0  0  0  0  0  3  0  0  0  0  0  0
   19.6842   -3.0800   -3.8078 C   0  0  1  0  0  0  0  0  0  0  0  0
   20.9514   -2.3284   -3.5606 C   0  0  0  0  0  0  0  0  0  0  0  0
   21.0638   -1.8228   -2.1392 C   0  0  0  0  0  3  0  0  0  0  0  0
   21.3822   -2.9028   -1.3426 O   0  0  0  0  0  0  0  0  0  0  0  0
   20.3194   -3.3377   -0.5591 C   0  0  0  0  0  0  0  0  0  0  0  0
   19.0954   -3.4301   -1.4006 C   0  0  0  0  0  3  0  0  0  0  0  0
   19.3105   -4.0594   -2.7572 C   0  0  2  0  0  0  0  0  0  0  0  0
   20.2956   -5.1972   -2.6139 C   0  0  0  0  0  3  0  0  0  0  0  0
   20.6902   -5.8015   -3.8446 N   0  0  0  0  0  0  0  0  0  0  0  0
   21.0002   -5.1872   -4.8980 N   0  0  0  0  0  0  0  0  0  0  0  0
   21.3798   -5.7778   -6.0795 N   0  0  0  0  0  0  0  0  0  0  0  0
   20.6560   -6.7461   -6.8352 C   0  0  0  0  0  0  0  0  0  0  0  0
   19.7289   -7.6115   -6.0338 C   0  0  0  0  0  3  0  0  0  0  0  0
   18.9951   -8.4604   -6.9751 N   0  0  0  0  0  0  0  0  0  0  0  0
   17.9092   -9.0970   -6.2635 C   0  0  0  0  0  0  0  0  0  0  0  0
   16.7066   -8.1985   -6.2437 C   0  0  0  0  0  0  0  0  0  0  0  0
   16.9799   -6.9831   -7.0734 C   0  0  1  0  0  0  0  0  0  0  0  0
   15.5696   -6.4779   -7.5966 C   0  0  2  0  0  0  0  0  0  0  0  0
   15.9245   -5.4300   -8.5288 N   0  0  0  0  0  0  0  0  0  0  0  0
   14.9594   -5.7797   -6.3679 C   0  0  1  0  0  0  0  0  0  0  0  0
   16.0921   -5.8660   -5.2706 C   0  0  0  0  0  3  0  0  0  0  0  0
   17.1998   -5.7688   -6.2400 C   0  0  0  0  0  0  0  0  0  0  0  0
   17.9972   -4.8471   -6.4403 N   0  0  0  0  0  4  0  0  0  0  0  0
   17.4317   -4.0301   -7.3127 C   0  0  0  0  0  0  0  0  0  0  0  0
   18.2493   -2.9452   -7.7471 C   0  0  0  0  0  0  0  0  0  0  0  0
   16.0581   -4.1765   -7.8355 C   0  0  2  0  0  0  0  0  0  0  0  0
   15.0083   -4.3035   -6.7611 C   0  0  2  0  0  0  0  0  0  0  0  0
   15.4397   -3.5202   -5.6921 O   0  0  0  0  0  0  0  0  0  0  0  0
   14.9067   -2.2616   -5.7316 C   0  0  2  0  0  0  0  0  0  0  0  0
   14.9505   -1.7345   -7.1245 C   0  0  0  0  0  0  0  0  0  0  0  0
   14.2155   -2.1407   -8.0574 O   0  0  0  0  0  0  0  0  0  0  0  0
   15.9330   -0.7383   -7.1814 O   0  0  0  0  0  0  0  0  0  0  0  0
   16.5719   -0.6011   -5.9822 N   0  0  0  0  0  3  0  0  0  0  0  0
   16.3383    0.5957   -5.3486 O   0  0  0  0  0  0  0  0  0  0  0  0
   15.0850    0.1246   -5.0687 C   0  0  2  0  0  0  0  0  0  0  0  0
   14.1963    0.7313   -3.6065 P   0  0  0  0  0  0  0  0  0  0  0  0
   13.7811    2.3882   -3.6162 O   0  0  0  0  0  0  0  0  0  0  0  0
   14.7961    3.1897   -3.5547 O   0  0  0  0  0  0  0  0  0  0  0  0
   14.3597    4.3097   -2.9863 O   0  0  0  0  0  0  0  0  0  0  0  0
   15.3652    5.2920   -3.0290 C   0  0  0  0  0  3  0  0  0  0  0  0
   16.6325    4.7232   -3.6208 C   0  0  0  0  0  0  0  0  0  0  0  0
   16.6809    4.9998   -4.9779 O   0  0  0  0  0  0  0  0  0  0  0  0
   17.4871    4.0932   -5.6577 C   0  0  0  0  0  3  0  0  0  0  0  0
   17.3590    4.3632   -7.1516 C   0  0  0  0  0  0  0  0  0  0  0  0
   18.6661    4.8678   -7.7302 C   0  0  0  0  0  3  0  0  0  0  0  0
   19.5558    5.8705   -6.4335 P   0  0  0  0  0  0  0  0  0  0  0  0
   20.5741    4.7112   -5.3768 C   0  0  0  0  0  3  0  0  0  0  0  0
   20.2770    3.2788   -5.7166 C   0  0  0  0  0  0  0  0  0  0  0  0
   20.5451    2.3909   -4.5101 C   0  0  0  0  0  3  0  0  0  0  0  0
   21.3791    1.1946   -4.9135 C   0  0  0  0  0  3  0  0  0  0  0  0
   21.3518    1.0073   -6.3593 N   0  0  0  0  0  0  0  0  0  0  0  0
   20.3209    0.2225   -6.9347 C   0  0  0  0  0  0  0  0  0  0  0  0
   19.4218   -0.3205   -6.2210 O   0  0  0  0  0  0  0  0  0  0  0  0
  1  2  1  1
  2  3  1  0
  3  4  2  0
  3  5  1  0
  6  5  1  1
  6  7  1  0
  7  8  1  0
  8  9  1  0
  9 10  1  0
 10 11  1  0
 12 11  1  1
 12 13  1  0
 13 14  1  0
 14 15  2  3
 15 16  1  0
 16 17  1  0
 17 18  1  0
 18 19  1  0
 19 20  1  0
 20 21  1  0
 22 21  1  1
 22 23  1  0
 23 24  1  6
 23 25  1  0
 25 26  1  1
 26 27  1  0
 27 28  2  0
 28 29  2  0
 29 30  1  0
 29 31  1  0
 31 32  1  0
 32 33  1  1
 34 33  1  6
 34 35  1  0
 35 36  2  0
 35 37  1  0
 37 38  1  0
 38 39  1  0
 39 40  1  0
 40 41  1  1
 41 42  1  0
 42 43  1  0
 43 44  1  0
 44 45  1  0
 45 46  1  0
 46 47  1  0
 47 48  1  0
 48 49  1  0
 49 50  1  0
 50 51  1  0
 51 52  1  0
 52 53  1  0
 53 54  1  0
 54 55  1  0
 55 56  1  0
 56 57  1  0
 57 58  2  0
 34  1  1  0
 38  1  1  0
 40  1  1  0
 12  6  1  0
 27 22  1  0
 31 24  1  6
 32 25  1  0
M  RAD  8   5   2   8   2  11   2  13   2  18   2  26   2  38   2  45   2
M  CHG  2  28   1  38   1
M  RAD  5  48   2  50   2  52   2  54   2  55   2
M  END
>  <docking_score>  (1) 
12.641

$$$$
