
     RDKit          3D

 13 12  0  0  0  0  0  0  0  0999 V2000
   13.5607   -0.3408   -4.6425 C   0  0  0  0  0  0  0  0  0  0  0  0
   14.7566   -0.2603   -5.3731 O   0  0  0  0  0  0  0  0  0  0  0  0
   14.9367   -1.5334   -5.9358 C   0  0  0  0  0  3  0  0  0  0  0  0
   14.9403   -2.5317   -4.9786 O   0  0  0  0  0  0  0  0  0  0  0  0
   15.2429   -3.7928   -5.5174 C   0  0  2  0  0  0  0  0  0  0  0  0
   13.9099   -4.5034   -5.7257 C   0  0  0  0  0  0  0  0  0  0  0  0
   14.1658   -5.9802   -5.5227 C   0  0  0  0  0  2  0  0  0  0  0  0
   15.9185   -4.5599   -4.3867 C   0  0  0  0  0  3  0  0  0  0  0  0
   16.1020   -3.7635   -3.2091 N   0  0  0  0  0  0  0  0  0  0  0  0
   16.9695   -4.5239   -2.3152 C   0  0  0  0  0  3  0  0  0  0  0  0
   18.3746   -4.5542   -2.8814 C   0  0  0  0  0  3  0  0  0  0  0  0
   19.7242   -3.4093   -1.7129 I   0  0  0  0  0  0  0  0  0  0  0  0
   18.7542   -5.8999   -2.9438 O   0  0  0  0  0  0  0  0  0  0  0  0
  1  2  1  0
  2  3  1  0
  3  4  1  0
  4  5  1  0
  5  6  1  1
  6  7  1  0
  5  8  1  0
  8  9  1  0
  9 10  1  0
 10 11  1  0
 11 12  1  0
 11 13  1  0
M  RAD  5   3   2   7   3   8   2  10   2  11   2
M  END
>  <docking_score>  (1) 
-3.238

$$$$

     RDKit          3D

 13 12  0  0  0  0  0  0  0  0999 V2000
   20.1596   -3.2169   -0.9477 C   0  0  0  0  0  0  0  0  0  0  0  0
   19.7496   -2.1154   -1.7154 O   0  0  0  0  0  0  0  0  0  0  0  0
   18.4874   -2.4625   -2.2218 C   0  0  0  0  0  3  0  0  0  0  0  0
   18.5590   -3.4930   -3.1415 O   0  0  0  0  0  0  0  0  0  0  0  0
   17.3913   -4.2725   -3.1682 C   0  0  2  0  0  0  0  0  0  0  0  0
   17.7943   -5.6684   -2.7053 C   0  0  0  0  0  0  0  0  0  0  0  0
   19.1130   -5.9867   -3.3742 C   0  0  0  0  0  2  0  0  0  0  0  0
   17.0530   -4.4367   -4.6453 C   0  0  0  0  0  3  0  0  0  0  0  0
   16.4626   -3.2602   -5.2127 N   0  0  0  0  0  0  0  0  0  0  0  0
   15.3558   -2.8798   -4.3407 C   0  0  0  0  0  3  0  0  0  0  0  0
   15.4237   -1.3925   -4.0595 C   0  0  0  0  0  3  0  0  0  0  0  0
   14.1395   -0.2861   -5.3339 I   0  0  0  0  0  0  0  0  0  0  0  0
   15.0896   -1.2225   -2.7110 O   0  0  0  0  0  0  0  0  0  0  0  0
  1  2  1  0
  2  3  1  0
  3  4  1  0
  4  5  1  0
  5  6  1  6
  6  7  1  0
  5  8  1  0
  8  9  1  0
  9 10  1  0
 10 11  1  0
 11 12  1  0
 11 13  1  0
M  RAD  5   3   2   7   3   8   2  10   2  11   2
M  END
>  <docking_score>  (2) 
-2.9969999999999999

$$$$

     RDKit          3D

 13 12  0  0  0  0  0  0  0  0999 V2000
   21.0092    0.3927   -2.2118 C   0  0  0  0  0  0  0  0  0  0  0  0
   20.8150   -0.9968   -2.1657 O   0  0  0  0  0  0  0  0  0  0  0  0
   19.5001   -1.1749   -1.7080 C   0  0  0  0  0  3  0  0  0  0  0  0
   18.6266   -1.4819   -2.7354 O   0  0  0  0  0  0  0  0  0  0  0  0
   17.6380   -2.3996   -2.3451 C   0  0  2  0  0  0  0  0  0  0  0  0
   18.3640   -3.5432   -1.6448 C   0  0  0  0  0  0  0  0  0  0  0  0
   18.5464   -4.6387   -2.6716 C   0  0  0  0  0  2  0  0  0  0  0  0
   17.1201   -3.0069   -3.6436 C   0  0  0  0  0  3  0  0  0  0  0  0
   17.1936   -2.0971   -4.7489 N   0  0  0  0  0  0  0  0  0  0  0  0
   16.0769   -2.4148   -5.6332 C   0  0  0  0  0  3  0  0  0  0  0  0
   14.7797   -2.3418   -4.8536 C   0  0  0  0  0  3  0  0  0  0  0  0
   13.8813   -0.4255   -4.9889 I   0  0  0  0  0  0  0  0  0  0  0  0
   13.9464   -3.3433   -5.3648 O   0  0  0  0  0  0  0  0  0  0  0  0
  1  2  1  0
  2  3  1  0
  3  4  1  0
  4  5  1  0
  5  6  1  1
  6  7  1  0
  5  8  1  0
  8  9  1  0
  9 10  1  0
 10 11  1  0
 11 12  1  0
 11 13  1  0
M  RAD  5   3   2   7   3   8   2  10   2  11   2
M  END
>  <docking_score>  (3) 
-2.9700000000000002

$$$$
