
     RDKit          3D

 24 25  0  0  0  0  0  0  0  0999 V2000
    6.0886    9.5531    5.2197 C   0  0  0  0  0  0  0  0  0  0  0  0
    6.1210   10.2311    3.8755 C   0  0  1  0  0  0  0  0  0  0  0  0
    5.2862    9.4654    2.8780 C   0  0  0  0  0  0  0  0  0  0  0  0
    3.8132    9.6580    3.1134 C   0  0  2  0  0  0  0  0  0  0  0  0
    3.1370    9.1277    2.0130 O   0  0  0  0  0  0  0  0  0  0  0  0
    3.4733   11.1249    3.1774 C   0  0  2  0  0  0  0  0  0  0  0  0
    3.9349   11.7163    1.9951 O   0  0  0  0  0  0  0  0  0  0  0  0
    4.2448   11.7936    4.3096 C   0  0  1  0  0  0  0  0  0  0  0  0
    3.9746   11.0850    5.4854 O   0  0  0  0  0  0  0  0  0  0  0  0
    5.7042   11.6933    3.9565 C   0  0  1  0  0  0  0  0  0  0  0  0
    6.5624   12.3365    4.9090 N   0  0  0  0  0  0  0  0  0  0  0  0
    7.6256   13.1297    4.3275 C   0  0  1  0  0  0  0  0  0  0  0  0
    7.4567   13.1488    2.8798 C   0  0  0  0  0  0  0  0  0  0  0  0
    7.8705   14.3592    2.1387 C   0  0  1  0  0  0  0  0  0  0  0  0
    6.9997   15.4346    2.3672 O   0  0  0  0  0  0  0  0  0  0  0  0
    9.3100   14.7464    2.2889 C   0  0  1  0  0  0  0  0  0  0  0  0
    9.4948   16.0535    1.8459 O   0  0  0  0  0  0  0  0  0  0  0  0
    9.8707   14.5030    3.6564 C   0  0  1  0  0  0  0  0  0  0  0  0
   11.1290   15.1267    3.6880 O   0  0  0  0  0  0  0  0  0  0  0  0
    9.0415   15.1591    4.7213 C   0  0  2  0  0  0  0  0  0  0  0  0
    9.8405   15.2094    5.8753 O   0  0  0  0  0  0  0  0  0  0  0  0
    7.7790   14.4088    5.0652 C   0  0  1  0  0  0  0  0  0  0  0  0
    6.6888   15.2592    4.9561 O   0  0  0  0  0  0  0  0  0  0  0  0
    6.4784   15.9469    6.1173 N   0  0  0  0  0  0  0  0  0  0  0  0
  2  1  1  1
  2  3  1  0
  3  4  1  0
  4  5  1  6
  4  6  1  0
  6  7  1  6
  6  8  1  0
  8  9  1  1
  8 10  1  0
 10 11  1  1
 12 11  1  1
 12 13  1  0
 13 14  1  0
 14 15  1  1
 14 16  1  0
 16 17  1  1
 16 18  1  0
 18 19  1  6
 18 20  1  0
 20 21  1  1
 20 22  1  0
 22 23  1  6
 23 24  1  0
 10  2  1  0
 22 12  1  0
M  END
>  <docking_score>  (1) 
-5.0890000000000004

$$$$

     RDKit          3D

 24 25  0  0  0  0  0  0  0  0999 V2000
   21.3348   -4.7572   -2.1280 C   0  0  0  0  0  0  0  0  0  0  0  0
   19.9743   -4.1404   -1.9379 C   0  0  1  0  0  0  0  0  0  0  0  0
   20.0664   -2.9216   -1.0524 C   0  0  0  0  0  0  0  0  0  0  0  0
   20.6695   -1.7477   -1.7740 C   0  0  2  0  0  0  0  0  0  0  0  0
   20.4861   -0.6197   -0.9720 O   0  0  0  0  0  0  0  0  0  0  0  0
   19.9446   -1.4922   -3.0704 C   0  0  2  0  0  0  0  0  0  0  0  0
   18.5870   -1.3287   -2.7689 O   0  0  0  0  0  0  0  0  0  0  0  0
   20.0293   -2.7201   -3.9701 C   0  0  1  0  0  0  0  0  0  0  0  0
   21.3817   -3.0471   -4.1178 O   0  0  0  0  0  0  0  0  0  0  0  0
   19.2932   -3.8258   -3.2628 C   0  0  1  0  0  0  0  0  0  0  0  0
   19.2359   -5.0424   -4.0204 N   0  0  0  0  0  0  0  0  0  0  0  0
   17.8993   -5.5518   -4.2481 C   0  0  1  0  0  0  0  0  0  0  0  0
   16.9493   -4.4567   -4.0963 C   0  0  0  0  0  0  0  0  0  0  0  0
   15.7246   -4.4674   -4.9240 C   0  0  1  0  0  0  0  0  0  0  0  0
   16.0018   -4.1892   -6.2705 O   0  0  0  0  0  0  0  0  0  0  0  0
   14.8442   -5.6682   -4.7572 C   0  0  1  0  0  0  0  0  0  0  0  0
   13.9325   -5.7334   -5.8077 O   0  0  0  0  0  0  0  0  0  0  0  0
   15.5896   -6.9498   -4.5437 C   0  0  1  0  0  0  0  0  0  0  0  0
   14.6426   -7.9827   -4.6418 O   0  0  0  0  0  0  0  0  0  0  0  0
   16.5998   -7.1916   -5.6267 C   0  0  2  0  0  0  0  0  0  0  0  0
   16.9428   -8.5518   -5.5564 O   0  0  0  0  0  0  0  0  0  0  0  0
   17.8664   -6.3867   -5.4752 C   0  0  1  0  0  0  0  0  0  0  0  0
   18.1128   -5.6835   -6.6450 O   0  0  0  0  0  0  0  0  0  0  0  0
   18.4985   -6.5195   -7.6539 N   0  0  0  0  0  0  0  0  0  0  0  0
  2  1  1  6
  2  3  1  0
  3  4  1  0
  4  5  1  1
  4  6  1  0
  6  7  1  1
  6  8  1  0
  8  9  1  1
  8 10  1  0
 10 11  1  6
 12 11  1  6
 12 13  1  0
 13 14  1  0
 14 15  1  6
 14 16  1  0
 16 17  1  6
 16 18  1  0
 18 19  1  6
 18 20  1  0
 20 21  1  1
 20 22  1  0
 22 23  1  6
 23 24  1  0
 10  2  1  0
 22 12  1  0
M  END
>  <docking_score>  (2) 
-4.5970000000000004

$$$$

     RDKit          3D

 24 25  0  0  0  0  0  0  0  0999 V2000
   15.1780   -2.4224   -8.0963 C   0  0  0  0  0  0  0  0  0  0  0  0
   16.1253   -2.1041   -6.9699 C   0  0  1  0  0  0  0  0  0  0  0  0
   15.5599   -1.0092   -6.0983 C   0  0  0  0  0  0  0  0  0  0  0  0
   14.4420   -1.5082   -5.2245 C   0  0  2  0  0  0  0  0  0  0  0  0
   14.1564   -0.5088   -4.2924 O   0  0  0  0  0  0  0  0  0  0  0  0
   14.8771   -2.7255   -4.4496 C   0  0  2  0  0  0  0  0  0  0  0  0
   16.0339   -2.3816   -3.7394 O   0  0  0  0  0  0  0  0  0  0  0  0
   15.2881   -3.8382   -5.4072 C   0  0  1  0  0  0  0  0  0  0  0  0
   14.2208   -4.0611   -6.2840 O   0  0  0  0  0  0  0  0  0  0  0  0
   16.4927   -3.3389   -6.1585 C   0  0  1  0  0  0  0  0  0  0  0  0
   17.0355   -4.3081   -7.0658 N   0  0  0  0  0  0  0  0  0  0  0  0
   17.7437   -5.4012   -6.4321 C   0  0  1  0  0  0  0  0  0  0  0  0
   18.1038   -6.3789   -7.4515 C   0  0  0  0  0  0  0  0  0  0  0  0
   19.3576   -7.1433   -7.2821 C   0  0  1  0  0  0  0  0  0  0  0  0
   20.4899   -6.3423   -7.4904 O   0  0  0  0  0  0  0  0  0  0  0  0
   19.4534   -7.9544   -6.0260 C   0  0  1  0  0  0  0  0  0  0  0  0
   20.7747   -8.3391   -5.8135 O   0  0  0  0  0  0  0  0  0  0  0  0
   18.8287   -7.3062   -4.8288 C   0  0  1  0  0  0  0  0  0  0  0  0
   19.2082   -8.0749   -3.7160 O   0  0  0  0  0  0  0  0  0  0  0  0
   19.3698   -5.9255   -4.5993 C   0  0  2  0  0  0  0  0  0  0  0  0
   19.0332   -5.5787   -3.2805 O   0  0  0  0  0  0  0  0  0  0  0  0
   18.7881   -4.8782   -5.5158 C   0  0  1  0  0  0  0  0  0  0  0  0
   19.8142   -4.1993   -6.1560 O   0  0  0  0  0  0  0  0  0  0  0  0
   20.3926   -3.2800   -5.3277 N   0  0  0  0  0  0  0  0  0  0  0  0
  2  1  1  6
  2  3  1  0
  3  4  1  0
  4  5  1  1
  4  6  1  0
  6  7  1  1
  6  8  1  0
  8  9  1  6
  8 10  1  0
 10 11  1  6
 12 11  1  6
 12 13  1  0
 13 14  1  0
 14 15  1  1
 14 16  1  0
 16 17  1  1
 16 18  1  0
 18 19  1  1
 18 20  1  0
 20 21  1  1
 20 22  1  0
 22 23  1  6
 23 24  1  0
 10  2  1  0
 22 12  1  0
M  END
>  <docking_score>  (3) 
-4.4859999999999998

$$$$
