
     RDKit          3D

 34 38  0  0  0  0  0  0  0  0999 V2000
   19.6491   -2.4840   -2.3352 C   0  0  0  0  0  0  0  0  0  0  0  0
   19.0127   -2.5759   -3.6191 O   0  0  0  0  0  0  0  0  0  0  0  0
   19.4705   -2.0761   -4.7931 C   0  0  0  0  0  0  0  0  0  0  0  0
   20.5714   -1.3026   -4.9426 C   0  0  0  0  0  0  0  0  0  0  0  0
   20.9715   -0.8107   -6.1391 C   0  0  0  0  0  0  0  0  0  0  0  0
   20.2410   -1.0959   -7.3090 C   0  0  0  0  0  0  0  0  0  0  0  0
   19.1230   -1.8772   -7.1948 C   0  0  0  0  0  0  0  0  0  0  0  0
   18.7069   -2.3974   -5.9342 C   0  0  0  0  0  0  0  0  0  0  0  0
   17.6059   -3.1846   -5.9375 O   0  0  0  0  0  0  0  0  0  0  0  0
   16.2944   -2.6051   -6.3905 C   0  0  1  0  0  0  0  0  0  0  0  0
   15.4925   -3.8917   -6.5886 C   0  0  0  0  0  0  0  0  0  0  0  0
   15.8676   -5.1372   -6.4812 N   0  0  0  0  0  0  0  0  0  0  0  0
   15.0256   -6.1148   -5.6240 C   0  0  2  0  0  0  0  0  0  0  0  0
   13.9390   -5.2702   -5.5315 C   0  0  0  0  0  0  0  0  0  0  0  0
   13.7460   -5.0968   -7.1059 C   0  0  0  0  0  0  0  0  0  0  0  0
   14.9603   -5.8394   -7.5644 C   0  0  1  0  0  0  0  0  0  0  0  0
   15.6867   -5.5884   -8.7255 C   0  0  0  0  0  0  0  0  0  0  0  0
   17.0558   -6.3431   -8.5599 C   0  0  0  0  0  3  0  0  0  0  0  0
   17.0724   -7.1574   -7.3761 O   0  0  0  0  0  0  0  0  0  0  0  0
   18.1001   -5.2880   -8.3801 C   0  0  0  0  0  0  0  0  0  0  0  0
   19.3513   -5.3466   -7.9726 C   0  0  0  0  0  0  0  0  0  0  0  0
   20.0014   -5.7686   -6.7551 C   0  0  0  0  0  0  0  0  0  0  0  0
   19.5415   -6.1323   -5.5218 C   0  0  0  0  0  0  0  0  0  0  0  0
   18.2008   -6.7386   -5.2226 C   0  0  0  0  0  0  0  0  0  0  0  0
   17.1571   -6.8762   -5.9980 C   0  0  0  0  0  0  0  0  0  0  0  0
   16.1730   -6.6300   -4.8717 C   0  0  1  0  0  0  0  0  0  0  0  0
   16.7199   -5.6102   -3.8759 C   0  0  0  0  0  3  0  0  0  0  0  0
   15.8842   -5.3218   -2.8408 O   0  0  0  0  0  0  0  0  0  0  0  0
   16.5713   -4.5082   -1.9341 C   0  0  0  0  0  2  0  0  0  0  0  0
   15.7536   -1.9054   -5.1432 C   0  0  2  0  0  0  0  0  0  0  0  0
   14.3188   -2.1542   -4.9633 C   0  0  0  0  0  0  0  0  0  0  0  0
   13.6944   -0.9805   -5.2750 C   0  0  0  0  0  0  0  0  0  0  0  0
   14.7708   -0.0047   -5.6683 C   0  0  0  0  0  3  0  0  0  0  0  0
   15.9539   -0.5493   -5.1557 O   0  0  0  0  0  0  0  0  0  0  0  0
  1  2  1  0
  2  3  1  0
  3  4  2  0
  4  5  1  0
  5  6  2  0
  6  7  1  0
  7  8  2  0
  8  9  1  0
  9 10  1  0
 10 11  1  1
 11 12  1  0
 12 13  1  0
 13 14  1  1
 14 15  1  0
 16 15  1  6
 16 17  1  0
 17 18  1  0
 18 19  1  0
 18 20  1  0
 20 21  2  3
 21 22  1  0
 22 23  2  3
 23 24  1  0
 24 25  2  3
 25 26  1  0
 26 27  1  1
 27 28  1  0
 28 29  1  0
 10 30  1  0
 30 31  1  0
 31 32  2  0
 32 33  1  0
 33 34  1  0
  8  3  1  0
 16 12  1  0
 26 13  1  0
 25 19  1  0
 30 34  1  6
M  RAD  4  18   2  27   2  29   3  33   2
M  END
>  <docking_score>  (1) 
-5.0119999999999996

$$$$

     RDKit          3D

 34 38  0  0  0  0  0  0  0  0999 V2000
   19.6907    0.3021   -5.4508 C   0  0  0  0  0  0  0  0  0  0  0  0
   18.9024   -0.6760   -4.7554 O   0  0  0  0  0  0  0  0  0  0  0  0
   19.1543   -1.2068   -3.5338 C   0  0  0  0  0  0  0  0  0  0  0  0
   19.9704   -0.6704   -2.5964 C   0  0  0  0  0  0  0  0  0  0  0  0
   20.2040   -1.2561   -1.3980 C   0  0  0  0  0  0  0  0  0  0  0  0
   19.5867   -2.4782   -1.0679 C   0  0  0  0  0  0  0  0  0  0  0  0
   18.7532   -3.0481   -1.9920 C   0  0  0  0  0  0  0  0  0  0  0  0
   18.5056   -2.4265   -3.2510 C   0  0  0  0  0  0  0  0  0  0  0  0
   17.6406   -3.0580   -4.0785 O   0  0  0  0  0  0  0  0  0  0  0  0
   16.6903   -2.2380   -4.9065 C   0  0  1  0  0  0  0  0  0  0  0  0
   16.6119   -3.1109   -6.1592 C   0  0  0  0  0  0  0  0  0  0  0  0
   17.0844   -4.3079   -6.3768 N   0  0  0  0  0  0  0  0  0  0  0  0
   16.1101   -5.4580   -6.7338 C   0  0  2  0  0  0  0  0  0  0  0  0
   15.0435   -4.6215   -6.9897 C   0  0  0  0  0  0  0  0  0  0  0  0
   15.7991   -3.7418   -8.0858 C   0  0  0  0  0  0  0  0  0  0  0  0
   17.1633   -4.3395   -7.9524 C   0  0  1  0  0  0  0  0  0  0  0  0
   18.3721   -3.6845   -8.1730 C   0  0  0  0  0  0  0  0  0  0  0  0
   19.4865   -4.5900   -7.5331 C   0  0  0  0  0  3  0  0  0  0  0  0
   18.9530   -5.8427   -7.0741 O   0  0  0  0  0  0  0  0  0  0  0  0
   19.9840   -3.8582   -6.3276 C   0  0  0  0  0  0  0  0  0  0  0  0
   20.7255   -4.2403   -5.3082 C   0  0  0  0  0  0  0  0  0  0  0  0
   20.5874   -5.2352   -4.2718 C   0  0  0  0  0  0  0  0  0  0  0  0
   19.5651   -6.0541   -3.8856 C   0  0  0  0  0  0  0  0  0  0  0  0
   18.4629   -6.5665   -4.7672 C   0  0  0  0  0  0  0  0  0  0  0  0
   18.1410   -6.2187   -5.9858 C   0  0  0  0  0  0  0  0  0  0  0  0
   16.6548   -6.3867   -5.7394 C   0  0  1  0  0  0  0  0  0  0  0  0
   16.2852   -5.9916   -4.3118 C   0  0  0  0  0  3  0  0  0  0  0  0
   15.0332   -6.3610   -3.9258 O   0  0  0  0  0  0  0  0  0  0  0  0
   14.7210   -7.5743   -4.5477 C   0  0  0  0  0  2  0  0  0  0  0  0
   15.3585   -2.3634   -4.1660 C   0  0  2  0  0  0  0  0  0  0  0  0
   14.2179   -2.1712   -5.0689 C   0  0  0  0  0  0  0  0  0  0  0  0
   13.6974   -0.9478   -4.7578 C   0  0  0  0  0  0  0  0  0  0  0  0
   14.5495   -0.3787   -3.6553 C   0  0  0  0  0  3  0  0  0  0  0  0
   15.2339   -1.4790   -3.1261 O   0  0  0  0  0  0  0  0  0  0  0  0
  1  2  1  0
  2  3  1  0
  3  4  2  0
  4  5  1  0
  5  6  2  0
  6  7  1  0
  7  8  2  0
  8  9  1  0
  9 10  1  0
 10 11  1  6
 11 12  1  0
 12 13  1  0
 13 14  1  1
 14 15  1  0
 16 15  1  6
 16 17  1  0
 17 18  1  0
 18 19  1  0
 18 20  1  0
 20 21  2  3
 21 22  1  0
 22 23  2  3
 23 24  1  0
 24 25  2  3
 25 26  1  0
 26 27  1  1
 27 28  1  0
 28 29  1  0
 10 30  1  0
 30 31  1  0
 31 32  2  0
 32 33  1  0
 33 34  1  0
  8  3  1  0
 16 12  1  0
 26 13  1  0
 25 19  1  0
 30 34  1  1
M  RAD  4  18   2  27   2  29   3  33   2
M  END
>  <docking_score>  (2) 
-4.7199999999999998

$$$$

     RDKit          3D

 34 38  0  0  0  0  0  0  0  0999 V2000
   16.8826   -9.9244   -5.6974 C   0  0  0  0  0  0  0  0  0  0  0  0
   17.0340   -8.5023   -5.8261 O   0  0  0  0  0  0  0  0  0  0  0  0
   17.9180   -7.8452   -6.6163 C   0  0  0  0  0  0  0  0  0  0  0  0
   18.2058   -8.1561   -7.9019 C   0  0  0  0  0  0  0  0  0  0  0  0
   19.1164   -7.4777   -8.6398 C   0  0  0  0  0  0  0  0  0  0  0  0
   19.8163   -6.3885   -8.0854 C   0  0  0  0  0  0  0  0  0  0  0  0
   19.5485   -6.0451   -6.7878 C   0  0  0  0  0  0  0  0  0  0  0  0
   18.5858   -6.7585   -6.0151 C   0  0  0  0  0  0  0  0  0  0  0  0
   18.3743   -6.3168   -4.7533 O   0  0  0  0  0  0  0  0  0  0  0  0
   18.9653   -5.0001   -4.3311 C   0  0  1  0  0  0  0  0  0  0  0  0
   17.6899   -4.1659   -4.2097 C   0  0  0  0  0  0  0  0  0  0  0  0
   17.1567   -3.3236   -5.0521 N   0  0  0  0  0  0  0  0  0  0  0  0
   15.6191   -3.3038   -5.2389 C   0  0  2  0  0  0  0  0  0  0  0  0
   15.3634   -4.0647   -4.1171 C   0  0  0  0  0  0  0  0  0  0  0  0
   16.1347   -3.1046   -3.1025 C   0  0  0  0  0  0  0  0  0  0  0  0
   16.7161   -2.1491   -4.0951 C   0  0  1  0  0  0  0  0  0  0  0  0
   17.9132   -1.4511   -3.9592 C   0  0  0  0  0  0  0  0  0  0  0  0
   18.2716   -0.9093   -5.3908 C   0  0  0  0  0  3  0  0  0  0  0  0
   17.2142   -1.1573   -6.3316 O   0  0  0  0  0  0  0  0  0  0  0  0
   19.4602   -1.6908   -5.8523 C   0  0  0  0  0  0  0  0  0  0  0  0
   20.0230   -1.8226   -7.0359 C   0  0  0  0  0  0  0  0  0  0  0  0
   19.5814   -2.3161   -8.3182 C   0  0  0  0  0  0  0  0  0  0  0  0
   18.4536   -2.9608   -8.7393 C   0  0  0  0  0  0  0  0  0  0  0  0
   17.0925   -2.8589   -8.1135 C   0  0  0  0  0  0  0  0  0  0  0  0
   16.7351   -2.3123   -6.9808 C   0  0  0  0  0  0  0  0  0  0  0  0
   15.6775   -3.3618   -6.7023 C   0  0  1  0  0  0  0  0  0  0  0  0
   16.1146   -4.7328   -7.2122 C   0  0  0  0  0  3  0  0  0  0  0  0
   15.2016   -5.3636   -8.0006 O   0  0  0  0  0  0  0  0  0  0  0  0
   13.9815   -5.4003   -7.3180 C   0  0  0  0  0  2  0  0  0  0  0  0
   19.4839   -5.2685   -2.9181 C   0  0  2  0  0  0  0  0  0  0  0  0
   19.1439   -4.1749   -2.0008 C   0  0  0  0  0  0  0  0  0  0  0  0
   20.3136   -3.5129   -1.7592 C   0  0  0  0  0  0  0  0  0  0  0  0
   21.3819   -4.2085   -2.5594 C   0  0  0  0  0  3  0  0  0  0  0  0
   20.8402   -5.4616   -2.8687 O   0  0  0  0  0  0  0  0  0  0  0  0
  1  2  1  0
  2  3  1  0
  3  4  2  0
  4  5  1  0
  5  6  2  0
  6  7  1  0
  7  8  2  0
  8  9  1  0
  9 10  1  0
 10 11  1  1
 11 12  1  0
 12 13  1  0
 13 14  1  1
 14 15  1  0
 16 15  1  1
 16 17  1  0
 17 18  1  0
 18 19  1  0
 18 20  1  0
 20 21  2  3
 21 22  1  0
 22 23  2  3
 23 24  1  0
 24 25  2  3
 25 26  1  0
 26 27  1  1
 27 28  1  0
 28 29  1  0
 10 30  1  0
 30 31  1  0
 31 32  2  0
 32 33  1  0
 33 34  1  0
  8  3  1  0
 16 12  1  0
 26 13  1  0
 25 19  1  0
 30 34  1  6
M  RAD  4  18   2  27   2  29   3  33   2
M  END
>  <docking_score>  (3) 
-4.7119999999999997

$$$$
