
     RDKit          3D

 33 35  0  0  0  0  0  0  0  0999 V2000
   15.6692  -13.3057   -8.2415 C   0  0  0  0  0  0  0  0  0  0  0  0
   16.9187  -12.7282   -7.6917 C   0  0  0  0  0  0  0  0  0  0  0  0
   17.7936  -13.4344   -7.1196 O   0  0  0  0  0  0  0  0  0  0  0  0
   17.1186  -11.3600   -7.8187 O   0  0  0  0  0  0  0  0  0  0  0  0
   17.6495  -10.6693   -6.7252 C   0  0  0  0  0  3  0  0  0  0  0  0
   16.7373  -10.6778   -5.5362 C   0  0  0  0  0  0  0  0  0  0  0  0
   15.8029   -9.8722   -5.4673 O   0  0  0  0  0  0  0  0  0  0  0  0
   17.9187   -9.2138   -7.0505 C   0  0  0  0  0  0  0  0  0  0  0  0
   19.1614   -8.8203   -6.2555 C   0  0  0  0  0  0  0  0  0  0  0  0
   18.6854   -7.9727   -5.0931 C   0  0  0  0  0  3  0  0  0  0  0  0
   17.7764   -6.9279   -5.6248 C   0  0  2  0  0  0  0  0  0  0  0  0
   18.4533   -5.8423   -6.4100 C   0  0  0  0  0  0  0  0  0  0  0  0
   18.9152   -4.6730   -5.5634 C   0  0  2  0  0  0  0  0  0  0  0  0
   20.2233   -5.1160   -4.9073 C   0  0  0  0  0  0  0  0  0  0  0  0
   17.8638   -4.3704   -4.6291 C   0  0  0  0  0  0  0  0  0  0  0  0
   17.0216   -3.4973   -4.1964 C   0  0  0  0  0  0  0  0  0  0  0  0
   17.4131   -3.0038   -2.8873 C   0  0  0  0  0  0  0  0  0  0  0  0
   16.9997   -1.9241   -2.4270 O   0  0  0  0  0  0  0  0  0  0  0  0
   18.3755   -3.9205   -2.1104 C   0  0  0  0  0  0  0  0  0  0  0  0
   18.5325   -5.3153   -2.7290 C   0  0  0  0  0  0  0  0  0  0  0  0
   17.4866   -5.5517   -3.6172 C   0  0  1  0  0  0  0  0  0  0  0  0
   16.2827   -5.1051   -2.7128 C   0  0  0  0  0  0  0  0  0  0  0  0
   16.8485   -6.3605   -4.5449 C   0  0  1  0  0  0  0  0  0  0  0  0
   15.7953   -5.6468   -5.3184 C   0  0  0  0  0  0  0  0  0  0  0  0
   14.9390   -4.5636   -4.8387 C   0  0  0  0  0  0  0  0  0  0  0  0
   15.7319   -3.2089   -4.7638 C   0  0  0  0  0  3  0  0  0  0  0  0
   14.9589   -2.0556   -4.5395 C   0  0  0  0  0  0  0  0  0  0  0  0
   15.0262   -1.0792   -5.6876 C   0  0  1  0  0  0  0  0  0  0  0  0
   15.4666   -1.6773   -6.9494 C   0  0  0  0  0  0  0  0  0  0  0  0
   16.6026   -1.6724   -7.3483 O   0  0  0  0  0  0  0  0  0  0  0  0
   13.7878   -0.2415   -5.8066 C   0  0  0  0  0  0  0  0  0  0  0  0
   13.2508    0.0825   -4.4794 C   0  0  0  0  0  0  0  0  0  0  0  0
   13.8476    0.7613   -3.6719 O   0  0  0  0  0  0  0  0  0  0  0  0
  1  2  1  0
  2  3  2  0
  2  4  1  0
  4  5  1  0
  5  6  1  0
  6  7  2  0
  5  8  1  0
  8  9  1  0
  9 10  1  0
 11 10  1  1
 11 12  1  0
 12 13  1  0
 13 14  1  1
 13 15  1  0
 15 16  2  0
 16 17  1  0
 17 18  2  0
 17 19  1  0
 19 20  1  0
 20 21  1  0
 21 22  1  1
 21 23  1  0
 23 24  1  6
 24 25  1  0
 25 26  1  0
 26 27  1  0
 28 27  1  1
 28 29  1  0
 29 30  2  0
 28 31  1  0
 31 32  1  0
 32 33  2  0
 23 11  1  0
 21 15  1  0
 26 16  1  0
M  RAD  3   5   2  10   2  26   2
M  END
>  <docking_score>  (1) 
-4.1959999999999997

$$$$

     RDKit          3D

 33 35  0  0  0  0  0  0  0  0999 V2000
   14.2626   -3.9663   -5.7812 C   0  0  0  0  0  0  0  0  0  0  0  0
   14.4388   -2.4990   -5.6672 C   0  0  0  0  0  0  0  0  0  0  0  0
   15.2426   -1.8573   -6.3978 O   0  0  0  0  0  0  0  0  0  0  0  0
   13.6854   -1.8210   -4.7180 O   0  0  0  0  0  0  0  0  0  0  0  0
   14.0068   -0.4860   -4.4553 C   0  0  0  0  0  3  0  0  0  0  0  0
   14.5529    0.2255   -5.6559 C   0  0  0  0  0  0  0  0  0  0  0  0
   15.3003    1.1989   -5.5115 O   0  0  0  0  0  0  0  0  0  0  0  0
   15.0533   -0.3584   -3.3667 C   0  0  0  0  0  0  0  0  0  0  0  0
   15.2970   -1.7705   -2.8396 C   0  0  0  0  0  0  0  0  0  0  0  0
   16.7086   -1.7932   -2.2891 C   0  0  0  0  0  3  0  0  0  0  0  0
   17.2566   -3.1585   -2.4787 C   0  0  2  0  0  0  0  0  0  0  0  0
   18.5415   -3.4295   -1.7513 C   0  0  0  0  0  0  0  0  0  0  0  0
   19.7812   -3.0786   -2.5496 C   0  0  2  0  0  0  0  0  0  0  0  0
   19.9470   -1.5633   -2.4300 C   0  0  0  0  0  0  0  0  0  0  0  0
   19.5768   -3.5415   -3.8963 C   0  0  0  0  0  0  0  0  0  0  0  0
   19.9846   -4.3059   -4.8494 C   0  0  0  0  0  0  0  0  0  0  0  0
   20.5791   -3.5257   -5.9212 C   0  0  0  0  0  0  0  0  0  0  0  0
   21.3603   -4.0186   -6.7550 O   0  0  0  0  0  0  0  0  0  0  0  0
   20.1656   -2.0431   -5.9497 C   0  0  0  0  0  0  0  0  0  0  0  0
   18.9912   -1.7125   -5.0199 C   0  0  0  0  0  0  0  0  0  0  0  0
   18.3339   -2.8871   -4.6636 C   0  0  1  0  0  0  0  0  0  0  0  0
   18.1924   -3.5376   -6.0862 C   0  0  0  0  0  0  0  0  0  0  0  0
   17.3420   -3.5504   -3.9579 C   0  0  1  0  0  0  0  0  0  0  0  0
   17.5332   -5.0266   -3.9255 C   0  0  0  0  0  0  0  0  0  0  0  0
   18.1228   -5.8565   -4.9744 C   0  0  0  0  0  0  0  0  0  0  0  0
   19.6866   -5.7046   -5.0014 C   0  0  0  0  0  3  0  0  0  0  0  0
   20.3800   -6.6241   -5.8088 C   0  0  0  0  0  0  0  0  0  0  0  0
   20.0678   -8.0573   -5.4562 C   0  0  1  0  0  0  0  0  0  0  0  0
   20.1871   -8.3559   -4.0278 C   0  0  0  0  0  0  0  0  0  0  0  0
   21.1696   -8.1437   -3.3649 O   0  0  0  0  0  0  0  0  0  0  0  0
   18.7911   -8.5400   -6.0780 C   0  0  0  0  0  0  0  0  0  0  0  0
   17.9415   -9.1958   -5.0766 C   0  0  0  0  0  0  0  0  0  0  0  0
   16.8785   -9.7117   -5.3465 O   0  0  0  0  0  0  0  0  0  0  0  0
  1  2  1  0
  2  3  2  0
  2  4  1  0
  4  5  1  0
  5  6  1  0
  6  7  2  0
  5  8  1  0
  8  9  1  0
  9 10  1  0
 11 10  1  6
 11 12  1  0
 12 13  1  0
 13 14  1  6
 13 15  1  0
 15 16  2  0
 16 17  1  0
 17 18  2  0
 17 19  1  0
 19 20  1  0
 20 21  1  0
 21 22  1  6
 21 23  1  0
 23 24  1  1
 24 25  1  0
 25 26  1  0
 26 27  1  0
 28 27  1  1
 28 29  1  0
 29 30  2  0
 28 31  1  0
 31 32  1  0
 32 33  2  0
 23 11  1  0
 21 15  1  0
 26 16  1  0
M  RAD  3   5   2  10   2  26   2
M  END
>  <docking_score>  (2) 
-2.5430000000000001

$$$$
