
     RDKit          3D

 67 67  0  0  0  0  0  0  0  0999 V2000
    4.4604    5.1461   13.2175 C   0  0  0  0  0  0  0  0  0  0  0  0
    5.1114    3.7982   13.3140 O   0  0  0  0  0  0  0  0  0  0  0  0
    6.4477    3.5633   12.6744 C   0  0  0  0  0  3  0  0  0  0  0  0
    7.0187    4.5829   11.7339 O   0  0  0  0  0  0  0  0  0  0  0  0
    7.9499    4.1547   10.6388 C   0  0  0  0  0  0  0  0  0  0  0  0
    7.4049    3.5009    9.4037 C   0  0  0  0  0  0  0  0  0  0  0  0
    9.4263    4.3803   10.7788 C   0  0  0  0  0  3  0  0  0  0  0  0
    9.9349    5.5415   11.5805 C   0  0  0  0  0  0  0  0  0  0  0  0
   11.4090    5.7158   11.7963 C   0  0  0  0  0  3  0  0  0  0  0  0
   11.9386    7.0049   12.3509 C   0  0  0  0  0  0  0  0  0  0  0  0
   12.7369    6.8053   13.6050 C   0  0  0  0  0  0  0  0  0  0  0  0
   12.8183    5.3633   14.0103 C   0  0  0  0  0  0  0  0  0  0  0  0
   13.4729    7.7092   14.5490 O   0  0  0  0  0  0  0  0  0  0  0  0
   13.7155    9.1873   14.6298 C   0  0  0  0  0  0  0  0  0  0  0  0
   13.3225   10.3735   13.8002 C   0  0  0  0  0  0  0  0  0  0  0  0
   12.5242   10.5732   12.5461 C   0  0  0  0  0  0  0  0  0  0  0  0
   12.4429   12.0151   12.1408 O   0  0  0  0  0  0  0  0  0  0  0  0
   11.7882    9.6692   11.6021 C   0  0  0  0  0  0  0  0  0  0  0  0
   11.1435   10.4192   10.4744 O   0  0  0  0  0  0  0  0  0  0  0  0
   11.5456    8.1912   11.5213 C   0  0  0  0  0  0  0  0  0  0  0  0
   10.7152    7.8100   10.3316 O   0  0  0  0  0  0  0  0  0  0  0  0
   10.5415    8.7762    9.1975 C   0  0  0  0  0  3  0  0  0  0  0  0
   11.4673    8.7232    8.0186 O   0  0  0  0  0  0  0  0  0  0  0  0
    8.9692    6.5286   12.1666 C   0  0  0  0  0  3  0  0  0  0  0  0
    7.6172    6.7152   11.5443 O   0  0  0  0  0  0  0  0  0  0  0  0
    6.9968    8.0799   11.4937 O   0  0  0  0  0  0  0  0  0  0  0  0
    5.5063    8.2234   11.4046 C   0  0  0  0  0  0  0  0  0  0  0  0
    4.6358    7.7088   12.5124 C   0  0  0  0  0  3  0  0  0  0  0  0
    3.6237    8.6123   13.1523 C   0  0  0  0  0  0  0  0  0  0  0  0
    3.1968    8.3748   14.5705 C   0  0  0  0  0  0  0  0  0  0  0  0
    2.6763    9.5128   15.3976 O   0  0  0  0  0  0  0  0  0  0  0  0
    2.8877    9.5187   16.8826 C   0  0  0  0  0  0  0  0  0  0  0  0
    3.2095   10.8021   17.5892 C   0  0  0  0  0  2  0  0  0  0  0  0
    3.0386    9.7532   12.3739 C   0  0  0  0  0  0  0  0  0  0  0  0
    2.4510    9.5110   11.0153 C   0  0  0  0  0  2  0  0  0  0  0  0
    3.0410   11.1364   12.9542 C   0  0  0  0  0  0  0  0  0  0  0  0
    2.4985   12.2852   12.1569 N   0  0  0  0  0  1  0  0  0  0  0  0
    3.5860   11.3708   14.3319 O   0  0  0  0  0  0  0  0  0  0  0  0
    3.2721   12.6466   15.0556 C   0  0  0  0  0  3  0  0  0  0  0  0
    3.8583   13.9427   14.5795 O   0  0  0  0  0  0  0  0  0  0  0  0
    4.8688   13.9465   13.4710 C   0  0  0  0  0  3  0  0  0  0  0  0
    5.2972   15.2434   12.8510 C   0  0  0  0  0  0  0  0  0  0  0  0
    4.3922   15.9474   11.8839 O   0  0  0  0  0  0  0  0  0  0  0  0
    6.6305   15.8364   13.1982 C   0  0  0  0  0  0  0  0  0  0  0  0
    7.6702   16.0198   12.1327 C   0  0  0  0  0  0  0  0  0  0  0  0
    7.5567   15.2718   10.8374 C   0  0  0  0  0  0  0  0  0  0  0  0
    7.1795   16.0001    9.5814 O   0  0  0  0  0  0  0  0  0  0  0  0
    7.4357   15.3709    8.2440 C   0  0  0  0  0  3  0  0  0  0  0  0
    8.6543   15.7522    7.4569 C   0  0  0  0  0  0  0  0  0  0  0  0
    8.7752   15.3458    6.0180 O   0  0  0  0  0  1  0  0  0  0  0  0
    7.8204   13.7957   10.7981 O   0  0  0  0  0  0  0  0  0  0  0  0
    6.8186   12.8713   10.1722 C   0  0  0  0  0  0  0  0  0  0  0  0
    5.4198   12.8061   10.7099 C   0  0  0  0  0  3  0  0  0  0  0  0
    4.2834   12.4406    9.8016 C   0  0  0  0  0  0  0  0  0  0  0  0
    3.3220   13.4960    9.3412 O   0  0  0  0  0  0  0  0  0  0  0  0
    3.1328   13.7500    7.8750 C   0  0  0  0  0  0  0  0  0  0  0  0
    2.7985   15.1294    7.3898 C   0  0  0  0  0  0  0  0  0  0  0  0
    3.2778   12.6244    6.8940 C   0  0  0  0  0  3  0  0  0  0  0  0
    2.5858   11.3174    7.1445 C   0  0  0  0  0  0  0  0  0  0  0  0
    2.4209   10.3300    6.0275 C   0  0  0  0  0  3  0  0  0  0  0  0
    3.2004   10.4976    4.7570 C   0  0  0  0  0  0  0  0  0  0  0  0
    3.8185    9.3030    4.0931 C   0  0  0  0  0  0  0  0  0  0  0  0
    3.6222    9.0765    2.6233 N   0  0  0  0  0  2  0  0  0  0  0  0
    2.9789    7.8111    2.1388 F   0  0  0  0  0  0  0  0  0  0  0  0
    4.6328    8.3347    4.8990 C   0  0  0  0  0  0  0  0  0  0  0  0
    3.9896    7.1041    5.4664 C   0  0  0  0  0  0  0  0  0  0  0  0
    4.2812    5.7607    4.8660 F   0  0  0  0  0  0  0  0  0  0  0  0
  1  2  1  0
  2  3  1  0
  3  4  1  0
  4  5  1  0
  5  6  1  0
  5  7  1  0
  8  7  1  0
  8  9  1  0
  9 10  1  0
 10 11  1  0
 11 12  1  0
 11 13  1  0
 13 14  1  0
 14 15  1  0
 15 16  1  0
 16 17  1  0
 16 18  1  0
 18 19  1  0
 18 20  1  0
 20 21  1  0
 21 22  1  0
 22 23  1  0
  8 24  1  0
 24 25  1  0
 25 26  1  0
 26 27  1  0
 27 28  1  0
 29 28  1  0
 29 30  1  0
 30 31  1  0
 31 32  1  0
 32 33  1  0
 29 34  1  0
 34 35  1  0
 34 36  1  0
 36 37  1  0
 36 38  1  0
 38 39  1  0
 39 40  1  0
 40 41  1  0
 41 42  1  0
 42 43  1  0
 42 44  1  0
 44 45  1  0
 46 45  1  0
 46 47  1  0
 47 48  1  0
 48 49  1  0
 49 50  1  0
 46 51  1  0
 51 52  1  0
 52 53  1  0
 53 54  1  0
 54 55  1  0
 55 56  1  0
 56 57  1  0
 56 58  1  0
 58 59  1  0
 59 60  1  0
 60 61  1  0
 62 61  1  0
 62 63  1  0
 63 64  1  0
 62 65  1  0
 65 66  1  0
 66 67  1  0
 20 10  1  0
M  RAD  8   3   2   7   2   9   2  22   2  24   2  28   2  33   3  35   3
M  RAD  8  37   2  39   2  41   2  48   2  53   2  58   2  60   2  63   3
M  CHG  3  37   1  50  -1  63   1
M  END
>  <docking_score>  (1) 
51.423999999999999

$$$$
