
     RDKit          3D

 25 25  0  0  0  0  0  0  0  0999 V2000
   17.3762   -8.9126   -5.7031 C   0  0  0  0  0  0  0  0  0  0  0  0
   18.3553   -8.6457   -6.8221 C   0  0  0  0  0  3  0  0  0  0  0  0
   17.7931   -7.7395   -7.8694 C   0  0  0  0  0  0  0  0  0  0  0  0
   18.2211   -6.3180   -7.7592 C   0  0  2  0  0  0  0  0  0  0  0  0
   19.3891   -6.2213   -7.0242 O   0  0  0  0  0  0  0  0  0  0  0  0
   17.1437   -5.3939   -7.2445 C   0  0  2  0  0  0  0  0  0  0  0  0
   15.8760   -5.8455   -7.5021 O   0  0  0  0  0  0  0  0  0  0  0  0
   17.3165   -4.0685   -7.9743 C   0  0  1  0  0  0  0  0  0  0  0  0
   16.0151   -3.6432   -8.3014 O   0  0  0  0  0  0  0  0  0  0  0  0
   17.9259   -3.0219   -7.0671 C   0  0  0  0  0  3  0  0  0  0  0  0
   17.1764   -1.8039   -7.0618 N   0  0  0  0  0  0  0  0  0  0  0  0
   17.2210   -1.1323   -5.7629 C   0  0  0  0  0  3  0  0  0  0  0  0
   16.9135   -2.1822   -4.7250 C   0  0  2  0  0  0  0  0  0  0  0  0
   15.4613   -2.2070   -4.3424 C   0  0  1  0  0  0  0  0  0  0  0  0
   14.8104   -1.0431   -4.7194 O   0  0  0  0  0  0  0  0  0  0  0  0
   14.8299   -3.4167   -5.0306 C   0  0  0  0  0  0  0  0  0  0  0  0
   15.2568   -4.5660   -4.3964 O   0  0  0  0  0  0  0  0  0  0  0  0
   16.3761   -4.4169   -3.7458 O   0  0  0  0  0  0  0  0  0  0  0  0
   16.2410   -3.8030   -2.5276 C   0  0  1  0  0  0  0  0  0  0  0  0
   16.4176   -4.7677   -1.5337 O   0  0  0  0  0  0  0  0  0  0  0  0
   17.1083   -2.6005   -2.3362 C   0  0  2  0  0  0  0  0  0  0  0  0
   16.2838   -1.5338   -1.9450 O   0  0  0  0  0  0  0  0  0  0  0  0
   17.8507   -2.1771   -3.5667 C   0  0  1  0  0  0  0  0  0  0  0  0
   18.9162   -3.0740   -3.7489 O   0  0  0  0  0  0  0  0  0  0  0  0
   19.9843   -2.4946   -3.1968 O   0  0  0  0  0  0  0  0  0  0  0  0
  1  2  1  0
  2  3  1  0
  3  4  1  0
  4  5  1  1
  4  6  1  0
  6  7  1  6
  6  8  1  0
  8  9  1  1
  8 10  1  0
 10 11  1  0
 11 12  1  0
 13 12  1  1
 13 14  1  0
 14 15  1  6
 14 16  1  0
 16 17  1  0
 17 18  1  0
 18 19  1  0
 19 20  1  1
 19 21  1  0
 21 22  1  6
 21 23  1  0
 23 24  1  6
 24 25  1  0
 23 13  1  0
M  RAD  3   2   2  10   2  12   2
M  END
>  <docking_score>  (1) 
-3.8929999999999998

$$$$

     RDKit          3D

 25 25  0  0  0  0  0  0  0  0999 V2000
   19.5639   -1.0407   -1.6503 C   0  0  0  0  0  0  0  0  0  0  0  0
   19.1865   -2.1548   -2.5981 C   0  0  0  0  0  3  0  0  0  0  0  0
   19.6501   -1.8977   -3.9956 C   0  0  0  0  0  0  0  0  0  0  0  0
   18.9662   -2.7100   -5.0389 C   0  0  2  0  0  0  0  0  0  0  0  0
   19.5473   -3.9619   -5.1337 O   0  0  0  0  0  0  0  0  0  0  0  0
   18.8663   -2.0232   -6.3798 C   0  0  2  0  0  0  0  0  0  0  0  0
   19.6329   -0.8907   -6.4652 O   0  0  0  0  0  0  0  0  0  0  0  0
   17.4116   -1.6075   -6.5529 C   0  0  1  0  0  0  0  0  0  0  0  0
   17.0321   -2.0762   -7.8249 O   0  0  0  0  0  0  0  0  0  0  0  0
   16.5252   -2.2865   -5.5315 C   0  0  0  0  0  3  0  0  0  0  0  0
   15.1562   -2.3301   -5.9429 N   0  0  0  0  0  0  0  0  0  0  0  0
   14.4172   -3.4124   -5.2927 C   0  0  0  0  0  3  0  0  0  0  0  0
   15.2608   -4.6545   -5.4335 C   0  0  2  0  0  0  0  0  0  0  0  0
   14.7663   -5.5676   -6.5187 C   0  0  1  0  0  0  0  0  0  0  0  0
   13.4611   -5.2752   -6.8815 O   0  0  0  0  0  0  0  0  0  0  0  0
   15.7015   -5.4004   -7.7157 C   0  0  0  0  0  0  0  0  0  0  0  0
   16.9068   -6.0099   -7.4307 O   0  0  0  0  0  0  0  0  0  0  0  0
   17.1362   -6.1393   -6.1544 O   0  0  0  0  0  0  0  0  0  0  0  0
   16.4753   -7.1872   -5.5676 C   0  0  1  0  0  0  0  0  0  0  0  0
   17.4091   -8.1870   -5.2880 O   0  0  0  0  0  0  0  0  0  0  0  0
   15.6447   -6.8145   -4.3820 C   0  0  2  0  0  0  0  0  0  0  0  0
   14.3458   -7.3017   -4.5969 O   0  0  0  0  0  0  0  0  0  0  0  0
   15.5455   -5.3391   -4.1412 C   0  0  1  0  0  0  0  0  0  0  0  0
   16.7626   -4.9182   -3.5805 O   0  0  0  0  0  0  0  0  0  0  0  0
   16.4928   -4.5945   -2.3141 O   0  0  0  0  0  0  0  0  0  0  0  0
  1  2  1  0
  2  3  1  0
  3  4  1  0
  4  5  1  6
  4  6  1  0
  6  7  1  1
  6  8  1  0
  8  9  1  6
  8 10  1  0
 10 11  1  0
 11 12  1  0
 13 12  1  1
 13 14  1  0
 14 15  1  6
 14 16  1  0
 16 17  1  0
 17 18  1  0
 18 19  1  0
 19 20  1  1
 19 21  1  0
 21 22  1  6
 21 23  1  0
 23 24  1  6
 24 25  1  0
 23 13  1  0
M  RAD  3   2   2  10   2  12   2
M  END
>  <docking_score>  (2) 
-3.8140000000000001

$$$$

     RDKit          3D

 25 25  0  0  0  0  0  0  0  0999 V2000
   19.1301   -5.5893   -6.7768 C   0  0  0  0  0  0  0  0  0  0  0  0
   18.4068   -6.5013   -7.7395 C   0  0  0  0  0  3  0  0  0  0  0  0
   16.9944   -6.7633   -7.3267 C   0  0  0  0  0  0  0  0  0  0  0  0
   16.8149   -7.0793   -5.8831 C   0  0  2  0  0  0  0  0  0  0  0  0
   16.7846   -8.4487   -5.6890 O   0  0  0  0  0  0  0  0  0  0  0  0
   15.6336   -6.3857   -5.2482 C   0  0  2  0  0  0  0  0  0  0  0  0
   14.6616   -6.0397   -6.1498 O   0  0  0  0  0  0  0  0  0  0  0  0
   16.1618   -5.1001   -4.6257 C   0  0  1  0  0  0  0  0  0  0  0  0
   15.0890   -4.1897   -4.6682 O   0  0  0  0  0  0  0  0  0  0  0  0
   16.5284   -5.3085   -3.1725 C   0  0  0  0  0  3  0  0  0  0  0  0
   17.9397   -5.4378   -2.9808 N   0  0  0  0  0  0  0  0  0  0  0  0
   18.4400   -4.5471   -1.9337 C   0  0  0  0  0  3  0  0  0  0  0  0
   18.9576   -3.3133   -2.6295 C   0  0  2  0  0  0  0  0  0  0  0  0
   20.4559   -3.2164   -2.5929 C   0  0  1  0  0  0  0  0  0  0  0  0
   21.0012   -4.0444   -1.6246 O   0  0  0  0  0  0  0  0  0  0  0  0
   20.9713   -3.6058   -3.9779 C   0  0  0  0  0  0  0  0  0  0  0  0
   20.6940   -2.5833   -4.8627 O   0  0  0  0  0  0  0  0  0  0  0  0
   19.7137   -1.8147   -4.4798 O   0  0  0  0  0  0  0  0  0  0  0  0
   20.0624   -0.8894   -3.5304 C   0  0  1  0  0  0  0  0  0  0  0  0
   20.0946    0.3665   -4.1398 O   0  0  0  0  0  0  0  0  0  0  0  0
   19.2224   -0.9183   -2.2941 C   0  0  2  0  0  0  0  0  0  0  0  0
   20.0841   -1.0311   -1.1916 O   0  0  0  0  0  0  0  0  0  0  0  0
   18.2542   -2.0601   -2.2364 C   0  0  1  0  0  0  0  0  0  0  0  0
   17.1916   -1.7594   -3.1044 O   0  0  0  0  0  0  0  0  0  0  0  0
   16.0830   -1.8160   -2.3635 O   0  0  0  0  0  0  0  0  0  0  0  0
  1  2  1  0
  2  3  1  0
  3  4  1  0
  4  5  1  6
  4  6  1  0
  6  7  1  6
  6  8  1  0
  8  9  1  1
  8 10  1  0
 10 11  1  0
 11 12  1  0
 13 12  1  1
 13 14  1  0
 14 15  1  1
 14 16  1  0
 16 17  1  0
 17 18  1  0
 18 19  1  0
 19 20  1  6
 19 21  1  0
 21 22  1  1
 21 23  1  0
 23 24  1  6
 24 25  1  0
 23 13  1  0
M  RAD  3   2   2  10   2  12   2
M  END
>  <docking_score>  (3) 
-3.7000000000000002

$$$$
