
     RDKit          3D

 28 29  0  0  0  0  0  0  0  0999 V2000
    6.5400   12.2376    2.5816 C   0  0  0  0  0  0  0  0  0  0  0  0
    7.4103   13.2353    2.2048 O   0  0  0  0  0  0  0  0  0  0  0  0
    7.1311   14.4271    2.8764 C   0  0  0  0  0  3  0  0  0  0  0  0
    7.5276   14.2520    4.2105 O   0  0  0  0  0  0  0  0  0  0  0  0
    6.4844   14.6422    5.0555 C   0  0  2  0  0  0  0  0  0  0  0  0
    6.7687   16.0067    5.6448 C   0  0  0  0  0  0  0  0  0  0  0  0
    6.3248   13.5801    6.1141 C   0  0  2  0  0  0  0  0  0  0  0  0
    5.5602   12.3966    5.5322 C   0  0  1  0  0  0  0  0  0  0  0  0
    4.8949   11.8542    6.8055 C   0  0  0  0  0  3  0  0  0  0  0  0
    4.2816   13.1303    7.3435 C   0  0  0  0  0  0  0  0  0  0  0  0
    5.4953   14.0676    7.2906 C   0  0  2  0  0  0  0  0  0  0  0  0
    5.1182   15.3760    7.1221 O   0  0  0  0  0  0  0  0  0  0  0  0
    6.2409   13.8611    8.5853 C   0  0  0  0  0  0  0  0  0  0  0  0
    5.8591   14.9122    9.6150 C   0  0  0  0  0  0  0  0  0  0  0  0
    5.6992   14.3531   10.8713 O   0  0  0  0  0  0  0  0  0  0  0  0
    5.6970   12.9546   10.7700 C   0  0  0  0  0  3  0  0  0  0  0  0
    6.8267   12.4491   11.6576 C   0  0  2  0  0  0  0  0  0  0  0  0
    6.6643   11.0902   11.9299 O   0  0  0  0  0  0  0  0  0  0  0  0
    6.7932   13.2778   12.9260 C   0  0  0  0  0  0  0  0  0  0  0  0
    8.2549   13.4740   13.3473 C   0  0  0  0  0  3  0  0  0  0  0  0
    9.0562   13.9447   12.1626 C   0  0  0  0  0  3  0  0  0  0  0  0
    8.8779   15.4462   12.0440 C   0  0  0  0  0  3  0  0  0  0  0  0
    9.9442   15.9996   11.1166 C   0  0  0  0  0  3  0  0  0  0  0  0
   10.1442   15.0096    9.9706 C   0  0  0  0  0  0  0  0  0  0  0  0
    4.3944   12.9215    4.6848 C   0  0  0  0  0  0  0  0  0  0  0  0
    4.8453   13.6220    3.5767 O   0  0  0  0  0  0  0  0  0  0  0  0
    5.1362   12.7815    2.5050 C   0  0  2  0  0  0  0  0  0  0  0  0
    4.0994   11.6939    2.3383 C   0  0  0  0  0  0  0  0  0  0  0  0
  1  2  1  0
  2  3  1  0
  3  4  1  0
  4  5  1  0
  5  6  1  1
  7  5  1  6
  7  8  1  0
  8  9  1  1
  9 10  1  0
 10 11  1  0
 11 12  1  6
 11 13  1  0
 13 14  1  0
 14 15  1  0
 15 16  1  0
 16 17  1  0
 17 18  1  1
 17 19  1  0
 19 20  1  0
 20 21  1  0
 21 22  1  0
 22 23  1  0
 23 24  1  0
  8 25  1  0
 25 26  1  0
 26 27  1  0
 27 28  1  1
 27  1  1  0
  7 11  1  0
M  RAD  7   3   2   9   2  16   2  20   2  21   2  22   2  23   2
M  END
>  <docking_score>  (1) 
-2.9929999999999999

$$$$

     RDKit          3D

 28 29  0  0  0  0  0  0  0  0999 V2000
    4.6313    7.8706    4.1220 C   0  0  0  0  0  0  0  0  0  0  0  0
    5.2155    8.9730    3.5404 O   0  0  0  0  0  0  0  0  0  0  0  0
    4.7464   10.1547    4.1171 C   0  0  0  0  0  3  0  0  0  0  0  0
    5.3028   10.2365    5.4021 O   0  0  0  0  0  0  0  0  0  0  0  0
    4.2885   10.5027    6.3266 C   0  0  2  0  0  0  0  0  0  0  0  0
    4.3190   11.9596    6.7343 C   0  0  0  0  0  0  0  0  0  0  0  0
    4.4756    9.5730    7.4991 C   0  0  2  0  0  0  0  0  0  0  0  0
    3.9397    8.1917    7.1404 C   0  0  1  0  0  0  0  0  0  0  0  0
    3.5422    7.6870    8.5351 C   0  0  0  0  0  3  0  0  0  0  0  0
    2.7169    8.8636    9.0130 C   0  0  0  0  0  0  0  0  0  0  0  0
    3.6799   10.0203    8.7143 C   0  0  2  0  0  0  0  0  0  0  0  0
    3.0061   11.1885    8.4623 O   0  0  0  0  0  0  0  0  0  0  0  0
    4.5779   10.1397    9.9202 C   0  0  0  0  0  0  0  0  0  0  0  0
    3.7696   10.1929   11.2065 C   0  0  0  0  0  0  0  0  0  0  0  0
    4.2096   11.2091   12.0372 O   0  0  0  0  0  0  0  0  0  0  0  0
    3.9191   12.4526   11.4585 C   0  0  0  0  0  3  0  0  0  0  0  0
    5.1392   13.3363   11.6828 C   0  0  2  0  0  0  0  0  0  0  0  0
    5.6455   13.7900   10.4643 O   0  0  0  0  0  0  0  0  0  0  0  0
    6.1571   12.4983   12.4300 C   0  0  0  0  0  0  0  0  0  0  0  0
    7.5353   13.0215   12.0065 C   0  0  0  0  0  3  0  0  0  0  0  0
    8.2799   13.5055   13.2224 C   0  0  0  0  0  3  0  0  0  0  0  0
    7.7722   14.8943   13.5597 C   0  0  0  0  0  3  0  0  0  0  0  0
    7.6189   15.0132   15.0649 C   0  0  0  0  0  3  0  0  0  0  0  0
    8.9454   15.4998   15.6453 C   0  0  0  0  0  0  0  0  0  0  0  0
    2.6078    8.3493    6.3960 C   0  0  0  0  0  0  0  0  0  0  0  0
    2.7786    8.9831    5.1750 O   0  0  0  0  0  0  0  0  0  0  0  0
    3.1412    8.0940    4.1663 C   0  0  2  0  0  0  0  0  0  0  0  0
    2.3613    6.8010    4.2415 C   0  0  0  0  0  0  0  0  0  0  0  0
  1  2  1  0
  2  3  1  0
  3  4  1  0
  4  5  1  0
  5  6  1  1
  7  5  1  6
  7  8  1  0
  8  9  1  1
  9 10  1  0
 10 11  1  0
 11 12  1  6
 11 13  1  0
 13 14  1  0
 14 15  1  0
 15 16  1  0
 16 17  1  0
 17 18  1  6
 17 19  1  0
 19 20  1  0
 20 21  1  0
 21 22  1  0
 22 23  1  0
 23 24  1  0
  8 25  1  0
 25 26  1  0
 26 27  1  0
 27 28  1  1
 27  1  1  0
  7 11  1  0
M  RAD  7   3   2   9   2  16   2  20   2  21   2  22   2  23   2
M  END
>  <docking_score>  (2) 
-2.8119999999999998

$$$$

     RDKit          3D

 28 29  0  0  0  0  0  0  0  0999 V2000
    6.5159   10.8211    1.8568 C   0  0  0  0  0  0  0  0  0  0  0  0
    7.1747   11.7430    1.0752 O   0  0  0  0  0  0  0  0  0  0  0  0
    6.7871   13.0450    1.3973 C   0  0  0  0  0  3  0  0  0  0  0  0
    7.3466   13.3451    2.6481 O   0  0  0  0  0  0  0  0  0  0  0  0
    6.3521   13.8583    3.4859 C   0  0  2  0  0  0  0  0  0  0  0  0
    6.4820   15.3621    3.5947 C   0  0  0  0  0  0  0  0  0  0  0  0
    6.4742   13.1720    4.8231 C   0  0  2  0  0  0  0  0  0  0  0  0
    5.8453   11.7858    4.7397 C   0  0  1  0  0  0  0  0  0  0  0  0
    5.4129   11.5985    6.2012 C   0  0  0  0  0  3  0  0  0  0  0  0
    4.6697   12.8995    6.4224 C   0  0  0  0  0  0  0  0  0  0  0  0
    5.7099   13.9058    5.9127 C   0  0  2  0  0  0  0  0  0  0  0  0
    5.1179   15.0423    5.4226 O   0  0  0  0  0  0  0  0  0  0  0  0
    6.6130   14.2040    7.0833 C   0  0  0  0  0  0  0  0  0  0  0  0
    5.9152   15.0841    8.1077 C   0  0  0  0  0  0  0  0  0  0  0  0
    4.8425   14.4295    8.6882 O   0  0  0  0  0  0  0  0  0  0  0  0
    5.1313   14.1461   10.0306 C   0  0  0  0  0  3  0  0  0  0  0  0
    3.9996   14.7419   10.8577 C   0  0  2  0  0  0  0  0  0  0  0  0
    4.2706   16.0748   11.1693 O   0  0  0  0  0  0  0  0  0  0  0  0
    3.8748   13.8934   12.1071 C   0  0  0  0  0  0  0  0  0  0  0  0
    3.2201   12.5780   11.6671 C   0  0  0  0  0  3  0  0  0  0  0  0
    3.8241   11.4370   12.4420 C   0  0  0  0  0  3  0  0  0  0  0  0
    5.0488   11.9608   13.1675 C   0  0  0  0  0  3  0  0  0  0  0  0
    6.0825   10.8531   13.2569 C   0  0  0  0  0  3  0  0  0  0  0  0
    6.1852   10.1812   11.8890 C   0  0  0  0  0  0  0  0  0  0  0  0
    4.5280   11.8799    3.9596 C   0  0  0  0  0  0  0  0  0  0  0  0
    4.7428   12.2434    2.6392 O   0  0  0  0  0  0  0  0  0  0  0  0
    5.0445   11.1480    1.8339 C   0  0  2  0  0  0  0  0  0  0  0  0
    4.1779    9.9514    2.1544 C   0  0  0  0  0  0  0  0  0  0  0  0
  1  2  1  0
  2  3  1  0
  3  4  1  0
  4  5  1  0
  5  6  1  1
  7  5  1  6
  7  8  1  0
  8  9  1  1
  9 10  1  0
 10 11  1  0
 11 12  1  6
 11 13  1  0
 13 14  1  0
 14 15  1  0
 15 16  1  0
 16 17  1  0
 17 18  1  1
 17 19  1  0
 19 20  1  0
 20 21  1  0
 21 22  1  0
 22 23  1  0
 23 24  1  0
  8 25  1  0
 25 26  1  0
 26 27  1  0
 27 28  1  1
 27  1  1  0
  7 11  1  0
M  RAD  7   3   2   9   2  16   2  20   2  21   2  22   2  23   2
M  END
>  <docking_score>  (3) 
-2.5840000000000001

$$$$
