
     RDKit          3D

 49 50  0  0  0  0  0  0  0  0999 V2000
   18.9723   -0.7677   -3.1198 C   0  0  0  0  0  0  0  0  0  0  0  0
   17.9918   -1.8411   -2.7149 C   0  0  1  0  0  0  0  0  0  0  0  0
   16.9662   -1.3583   -1.7263 C   0  0  0  0  0  0  0  0  0  0  0  0
   15.8067   -0.6626   -2.3467 C   0  0  2  0  0  0  0  0  0  0  0  0
   14.6938   -0.8329   -1.4951 O   0  0  0  0  0  0  0  0  0  0  0  0
   15.4056   -1.2152   -3.6914 C   0  0  2  0  0  0  0  0  0  0  0  0
   14.0141   -1.1604   -3.8709 O   0  0  0  0  0  0  0  0  0  0  0  0
   15.9187   -2.6365   -3.7958 C   0  0  1  0  0  0  0  0  0  0  0  0
   15.4467   -3.2116   -4.9654 O   0  0  0  0  0  0  0  0  0  0  0  0
   17.4128   -2.5842   -3.8700 C   0  0  1  0  0  0  0  0  0  0  0  0
   17.8811   -2.0510   -5.1293 N   0  0  0  0  0  0  0  0  0  0  0  0
   17.5826   -2.9407   -6.2145 C   0  0  0  0  0  3  0  0  0  0  0  0
   18.8662   -3.3907   -6.9125 C   0  0  2  0  0  0  0  0  0  0  0  0
   19.6306   -2.1374   -7.2810 C   0  0  0  0  0  0  0  0  0  0  0  0
   18.4742   -4.0734   -8.0663 O   0  0  0  0  0  0  0  0  0  0  0  0
   17.3626   -4.8599   -7.8835 C   0  0  0  0  0  3  0  0  0  0  0  0
   17.4287   -5.9784   -8.7186 O   0  0  0  0  0  0  0  0  0  0  0  0
   18.5259   -6.6142   -8.4498 O   0  0  0  0  0  0  0  0  0  0  0  0
   19.0956   -6.2862   -7.3349 O   0  0  0  0  0  0  0  0  0  0  0  0
   20.0278   -7.1797   -6.8697 C   0  0  1  0  0  0  0  0  0  0  0  0
   21.2719   -6.5871   -6.8738 O   0  0  0  0  0  0  0  0  0  0  0  0
   19.6262   -7.6885   -5.5015 C   0  0  2  0  0  0  0  0  0  0  0  0
   18.7025   -6.7994   -4.9797 O   0  0  0  0  0  0  0  0  0  0  0  0
   20.8875   -7.7562   -4.6664 C   0  0  2  0  0  0  0  0  0  0  0  0
   20.6484   -8.4247   -3.4632 O   0  0  0  0  0  0  0  0  0  0  0  0
   21.3780   -6.4967   -4.3345 O   0  0  0  0  0  0  0  0  0  0  0  0
   20.5657   -5.4651   -4.7385 C   0  0  0  0  0  3  0  0  0  0  0  0
   19.8961   -4.7370   -3.5902 C   0  0  2  0  0  0  0  0  0  0  0  0
   20.5459   -5.0091   -2.3887 O   0  0  0  0  0  0  0  0  0  0  0  0
   18.5644   -5.1587   -3.5746 O   0  0  0  0  0  0  0  0  0  0  0  0
   18.3888   -5.9824   -2.4805 C   0  0  0  0  0  3  0  0  0  0  0  0
   17.6368   -7.2110   -2.9085 C   0  0  0  0  0  3  0  0  0  0  0  0
   17.6019   -7.4099   -4.4071 C   0  0  1  0  0  0  0  0  0  0  0  0
   16.4536   -6.8661   -4.9270 O   0  0  0  0  0  0  0  0  0  0  0  0
   15.9589   -7.5425   -6.0214 C   0  0  2  0  0  0  0  0  0  0  0  0
   14.4576   -7.6026   -6.0749 C   0  0  0  0  0  3  0  0  0  0  0  0
   13.9547   -6.4492   -6.6729 O   0  0  0  0  0  0  0  0  0  0  0  0
   16.6085   -8.8773   -6.1920 C   0  0  0  0  0  3  0  0  0  0  0  0
   15.5510   -9.9478   -6.1156 C   0  0  0  0  0  0  0  0  0  0  0  0
   16.1997  -11.2645   -5.7730 C   0  0  0  0  0  0  0  0  0  0  0  0
   17.2094  -11.6426   -6.7929 C   0  0  1  0  0  0  0  0  0  0  0  0
   17.0534  -13.0754   -7.1941 C   0  0  2  0  0  0  0  0  0  0  0  0
   15.7058  -13.2564   -7.5804 O   0  0  0  0  0  0  0  0  0  0  0  0
   17.3855  -14.0067   -6.0441 C   0  0  0  0  0  0  0  0  0  0  0  0
   17.4230  -15.4288   -6.5514 C   0  0  0  0  0  3  0  0  0  0  0  0
   18.5865  -16.0575   -6.1388 O   0  0  0  0  0  0  0  0  0  0  0  0
   17.4476  -10.7318   -7.9196 C   0  0  0  0  0  0  0  0  0  0  0  0
   18.4323   -9.7879   -7.6467 O   0  0  0  0  0  0  0  0  0  0  0  0
   18.6232   -9.0665   -8.7366 O   0  0  0  0  0  0  0  0  0  0  0  0
  2  1  1  6
  2  3  1  0
  3  4  1  0
  4  5  1  1
  4  6  1  0
  6  7  1  1
  6  8  1  0
  8  9  1  6
  8 10  1  0
 10 11  1  6
 11 12  1  0
 12 13  1  0
 13 14  1  6
 13 15  1  0
 15 16  1  0
 16 17  1  0
 17 18  1  0
 18 19  1  0
 19 20  1  0
 20 21  1  1
 20 22  1  0
 22 23  1  1
 22 24  1  0
 24 25  1  1
 24 26  1  0
 26 27  1  0
 27 28  1  0
 28 29  1  1
 28 30  1  0
 30 31  1  0
 31 32  1  0
 32 33  1  0
 33 34  1  6
 34 35  1  0
 35 36  1  1
 36 37  1  0
 35 38  1  0
 38 39  1  0
 39 40  1  0
 41 40  1  6
 41 42  1  0
 42 43  1  1
 42 44  1  0
 44 45  1  0
 45 46  1  0
 41 47  1  0
 47 48  1  0
 48 49  1  0
 10  2  1  0
 33 23  1  0
M  RAD  8  12   2  16   2  27   2  31   2  32   2  36   2  38   2  45   2
M  END
>  <docking_score>  (1) 
3.8250000000000002

$$$$
