
     RDKit          3D

 77 79  0  0  0  0  0  0  0  0999 V2000
   21.2316   -4.4079   -8.3997 C   0  0  0  0  0  0  0  0  0  0  0  0
   21.1951   -5.6614   -7.5812 C   0  0  0  0  0  0  0  0  0  0  0  0
   21.0345   -5.3110   -6.1093 C   0  0  0  0  0  0  0  0  0  0  0  0
   20.0169   -6.5164   -8.0045 C   0  0  0  0  0  0  0  0  0  0  0  0
   18.7467   -6.0676   -7.2859 C   0  0  0  0  0  0  0  0  0  0  0  0
   18.9042   -6.2540   -5.8041 C   0  0  0  0  0  0  0  0  0  0  0  0
   17.8952   -7.2676   -5.2561 C   0  0  1  0  0  0  0  0  0  0  0  0
   18.6208   -8.4568   -4.7130 C   0  0  0  0  0  0  0  0  0  0  0  0
   17.0513   -6.6405   -4.2120 C   0  0  0  0  0  3  0  0  0  0  0  0
   17.4193   -5.2782   -3.8488 C   0  0  0  0  0  0  0  0  0  0  0  0
   16.8505   -4.6564   -2.6810 C   0  0  0  0  0  0  0  0  0  0  0  0
   15.4422   -4.6591   -2.3445 C   0  0  2  0  0  0  0  0  0  0  0  0
   14.9047   -5.9645   -1.8906 C   0  0  0  0  0  0  0  0  0  0  0  0
   14.6459   -4.0732   -3.4992 C   0  0  0  0  0  0  0  0  0  0  0  0
   15.5735   -3.4556   -4.5014 C   0  0  1  0  0  0  0  0  0  0  0  0
   15.7087   -4.3542   -5.7062 C   0  0  0  0  0  0  0  0  0  0  0  0
   15.1342   -2.0641   -4.8189 C   0  0  0  0  0  0  0  0  0  0  0  0
   15.9220   -1.5234   -6.0047 C   0  0  0  0  0  0  0  0  0  0  0  0
   15.1107   -0.4223   -6.6439 C   0  0  1  0  0  0  0  0  0  0  0  0
   14.1834   -0.9948   -7.6845 C   0  0  0  0  0  0  0  0  0  0  0  0
   14.4137    0.4191   -5.6197 C   0  0  2  0  0  0  0  0  0  0  0  0
   15.3740    0.7986   -4.5460 C   0  0  0  0  0  0  0  0  0  0  0  0
   14.8346    1.6891   -3.4795 C   0  0  0  0  0  0  0  0  0  0  0  0
   14.2176    2.9617   -3.9518 C   0  0  1  0  0  0  0  0  0  0  0  0
   13.6571    2.9161   -5.2041 O   0  0  0  0  0  0  0  0  0  0  0  0
   12.8089    3.0394   -3.3497 C   0  0  0  0  0  0  0  0  0  0  0  0
   12.4949    3.5215   -4.7439 C   0  0  2  0  0  0  0  0  0  0  0  0
   11.2626    2.7746   -5.2094 C   0  0  0  0  0  0  0  0  0  0  0  0
   11.2905    1.3324   -4.7984 C   0  0  0  0  0  0  0  0  0  0  0  0
   11.9741    0.4457   -5.8183 C   0  0  0  0  0  0  0  0  0  0  0  0
   13.1565   -0.2376   -5.1654 C   0  0  2  0  0  0  0  0  0  0  0  0
   12.9410   -0.2631   -3.7535 N   0  0  0  0  0  0  0  0  0  0  0  0
   11.7982    0.4927   -3.3193 C   0  0  0  0  0  0  0  0  0  0  0  0
   10.7052   -0.3409   -2.7319 C   0  0  0  0  0  3  0  0  0  0  0  0
    9.4446    0.4584   -2.6376 C   0  0  0  0  0  0  0  0  0  0  0  0
    9.7033    1.9382   -2.6386 C   0  0  1  0  0  0  0  0  0  0  0  0
    9.2311    2.5103   -3.8057 O   0  0  0  0  0  0  0  0  0  0  0  0
    9.0088    2.5757   -1.4635 C   0  0  0  0  0  0  0  0  0  0  0  0
    7.5378    2.1623   -1.4093 C   0  0  0  0  0  0  0  0  0  0  0  0
    9.6686    2.1792   -0.1572 C   0  0  0  0  0  0  0  0  0  0  0  0
    9.0162    4.0868   -1.5324 C   0  0  0  0  0  0  0  0  0  0  0  0
    7.8269    4.6816   -0.8236 C   0  0  0  0  0  0  0  0  0  0  0  0
    7.7101    4.1195    0.5582 C   0  0  2  0  0  0  0  0  0  0  0  0
    6.9429    2.8111    0.4916 C   0  0  0  0  0  0  0  0  0  0  0  0
    7.0411    5.0882    1.5156 C   0  0  2  0  0  0  0  0  0  0  0  0
    5.7399    5.5994    0.9860 C   0  0  0  0  0  0  0  0  0  0  0  0
    7.9047    6.1365    1.8337 O   0  0  0  0  0  0  0  0  0  0  0  0
    7.1782    7.1692    2.4133 C   0  0  0  0  0  3  0  0  0  0  0  0
    7.1820    7.0460    3.9009 C   0  0  0  0  0  0  0  0  0  0  0  0
    5.8042    6.9422    4.5170 C   0  0  2  0  0  0  0  0  0  0  0  0
    5.9702    6.5002    5.9658 C   0  0  0  0  0  0  0  0  0  0  0  0
    5.0704    5.8650    3.7446 C   0  0  0  0  0  3  0  0  0  0  0  0
    3.8584    5.3484    4.4462 C   0  0  0  0  0  0  0  0  0  0  0  0
    4.1795    4.3182    5.5004 C   0  0  0  0  0  0  0  0  0  0  0  0
    3.7684    4.7317    6.8761 C   0  0  0  0  0  0  0  0  0  0  0  0
    2.5071    5.5687    6.8786 C   0  0  0  0  0  0  0  0  0  0  0  0
    2.2601    6.2317    8.1938 C   0  0  0  0  0  0  0  0  0  0  0  0
    3.5252    6.7436    8.8394 C   0  0  0  0  0  3  0  0  0  0  0  0
    3.3176    8.0869    9.5016 C   0  0  0  0  0  0  0  0  0  0  0  0
    3.1976    9.2076    8.4822 C   0  0  0  0  0  3  0  0  0  0  0  0
    4.4753    9.3162    7.6486 C   0  0  0  0  0  0  0  0  0  0  0  0
    4.0322    9.6265    6.2352 C   0  0  0  0  0  2  0  0  0  0  0  0
    3.9720    8.4222    5.3645 C   0  0  1  0  0  0  0  0  0  0  0  0
    2.6345    8.3213    4.6891 C   0  0  0  0  0  0  0  0  0  0  0  0
    5.1387    8.2739    4.4228 C   0  0  1  0  0  0  0  0  0  0  0  0
    6.1372    9.3705    4.5309 C   0  0  0  0  0  0  0  0  0  0  0  0
    6.3431   10.1770    3.2977 C   0  0  0  0  0  3  0  0  0  0  0  0
    6.7063   11.5978    3.5852 C   0  0  0  0  0  0  0  0  0  0  0  0
    8.0425   11.9789    3.0366 C   0  0  0  0  0  0  0  0  0  0  0  0
    7.8967   13.1344    2.0768 C   0  0  1  0  0  0  0  0  0  0  0  0
    7.0466   12.7908    0.8880 C   0  0  0  0  0  0  0  0  0  0  0  0
    7.3144   14.3460    2.7369 C   0  0  0  0  0  0  0  0  0  0  0  0
    5.8279   14.3039    2.8544 C   0  0  0  0  0  0  0  0  0  0  0  0
    5.3715   14.5778    4.2657 C   0  0  0  0  0  0  0  0  0  0  0  0
    4.0408   13.9439    4.5648 C   0  0  0  0  0  3  0  0  0  0  0  0
    3.7104   12.9623    3.5559 N   0  0  0  0  0  0  0  0  0  0  0  0
    2.4069   13.0118    3.2195 F   0  0  0  0  0  0  0  0  0  0  0  0
  1  2  1  0
  2  3  1  0
  2  4  1  0
  4  5  1  0
  5  6  1  0
  6  7  1  0
  7  8  1  1
  7  9  1  0
  9 10  1  0
 10 11  1  0
 11 12  1  0
 12 13  1  6
 12 14  1  0
 14 15  1  0
 15 16  1  6
 15 17  1  0
 17 18  1  0
 18 19  1  0
 19 20  1  6
 19 21  1  0
 21 22  1  1
 22 23  1  0
 24 23  1  1
 24 25  1  0
 24 26  1  0
 27 26  1  1
 27 28  1  0
 28 29  1  0
 29 30  1  0
 30 31  1  0
 31 32  1  1
 32 33  1  0
 33 34  1  0
 34 35  1  0
 35 36  1  0
 36 37  1  6
 36 38  1  0
 38 39  1  0
 38 40  1  0
 38 41  1  0
 41 42  1  0
 42 43  1  0
 43 44  1  6
 43 45  1  0
 45 46  1  6
 45 47  1  0
 47 48  1  0
 48 49  1  0
 49 50  1  0
 50 51  1  1
 50 52  1  0
 52 53  1  0
 53 54  1  0
 54 55  1  0
 55 56  1  0
 56 57  1  0
 57 58  1  0
 58 59  1  0
 59 60  1  0
 60 61  1  0
 61 62  1  0
 62 63  1  0
 63 64  1  6
 63 65  1  0
 65 66  1  1
 66 67  1  0
 67 68  1  0
 68 69  1  0
 69 70  1  0
 70 71  1  6
 70 72  1  0
 72 73  1  0
 73 74  1  0
 74 75  1  0
 75 76  1  0
 76 77  1  0
 31 21  1  0
 27 25  1  0
 65 50  1  0
M  RAD  8   9   2  34   2  48   2  52   2  58   2  60   2  62   3  67   2
M  RAD  1  75   2
M  END
>  <docking_score>  (1) 
66.105999999999995

$$$$
