
     RDKit          3D

 58 60  0  0  0  0  0  0  0  0999 V2000
   17.7365   -4.1004   -3.6271 C   0  0  1  0  0  0  0  0  0  0  0  0
   17.7145   -4.3181   -5.1273 C   0  0  2  0  0  0  0  0  0  0  0  0
   16.4236   -3.7979   -5.7191 C   0  0  0  0  0  0  0  0  0  0  0  0
   17.6942   -5.8346   -5.3156 C   0  0  0  0  0  0  0  0  0  0  0  0
   17.5682   -6.2412   -6.7453 C   0  0  0  0  0  0  0  0  0  0  0  0
   16.5570   -7.3658   -6.8239 C   0  0  0  0  0  0  0  0  0  0  0  0
   16.7338   -8.2698   -5.6225 C   0  0  1  0  0  0  0  0  0  0  0  0
   15.4032   -8.6681   -5.0219 C   0  0  0  0  0  0  0  0  0  0  0  0
   17.4923   -9.5088   -6.0847 C   0  0  0  0  0  3  0  0  0  0  0  0
   16.4739  -10.3833   -6.8168 C   0  0  0  0  0  0  0  0  0  0  0  0
   15.7418  -11.1880   -5.7377 C   0  0  0  0  0  0  0  0  0  0  0  0
   16.4899  -12.4885   -5.5708 C   0  0  2  0  0  0  0  0  0  0  0  0
   16.5351  -12.8642   -4.0914 C   0  0  0  0  0  0  0  0  0  0  0  0
   17.9462  -12.3249   -6.0012 C   0  0  0  0  0  3  0  0  0  0  0  0
   18.5337  -13.7108   -6.1911 C   0  0  0  0  0  0  0  0  0  0  0  0
   19.5840  -13.7072   -7.2740 C   0  0  2  0  0  0  0  0  0  0  0  0
   20.3647  -14.9850   -7.1861 C   0  0  0  0  0  2  0  0  0  0  0  0
   20.4749  -12.4911   -7.1848 C   0  0  0  0  0  0  0  0  0  0  0  0
   19.7756  -11.3287   -7.8263 C   0  0  0  0  0  0  0  0  0  0  0  0
   20.4869  -10.0241   -7.6104 C   0  0  2  0  0  0  0  0  0  0  0  0
   21.1134   -9.5394   -8.7394 O   0  0  0  0  0  0  0  0  0  0  0  0
   21.3744  -10.1291   -6.4112 C   0  0  0  0  0  0  0  0  0  0  0  0
   20.8132   -9.3886   -5.2151 C   0  0  0  0  0  0  0  0  0  0  0  0
   21.0534   -7.9270   -5.4210 C   0  0  1  0  0  0  0  0  0  0  0  0
   20.7438   -7.4733   -6.8211 C   0  0  0  0  0  0  0  0  0  0  0  0
   20.5483   -7.1181   -4.4396 O   0  0  0  0  0  0  0  0  0  0  0  0
   19.6182   -7.7017   -3.6158 C   0  0  0  0  0  0  0  0  0  0  0  0
   18.5791   -6.6806   -3.2216 C   0  0  0  0  0  3  0  0  0  0  0  0
   18.9903   -5.1507   -2.9680 S   0  0  1  0  0  0  0  0  0  0  0  0
   20.5861   -4.7353   -4.2442 C   0  0  0  0  0  2  0  0  0  0  0  0
   19.4795   -4.3550   -1.4982 C   0  0  0  0  0  0  0  0  0  0  0  0
   18.1100   -3.4424   -0.7419 S   0  0  0  0  0  0  0  0  0  0  0  0
   17.2641   -2.4128   -1.9671 C   0  0  2  0  0  0  0  0  0  0  0  0
   15.8073   -2.6461   -2.1349 C   0  0  0  0  0  2  0  0  0  0  0  0
   17.9265   -2.6433   -3.2645 C   0  0  2  0  0  0  0  0  0  0  0  0
   17.5769   -1.6654   -4.3184 C   0  0  0  0  0  0  0  0  0  0  0  0
   18.2388   -1.9673   -5.6207 C   0  0  0  0  0  0  0  0  0  0  0  0
   20.0259   -1.7849   -5.4271 S   0  0  0  0  0  0  0  0  0  0  0  0
   20.5206   -1.4600   -3.7356 C   0  0  0  0  0  0  0  0  0  0  0  0
   20.3678   -0.0055   -3.4453 C   0  0  2  0  0  0  0  0  0  0  0  0
   21.0076    0.9139   -4.4347 C   0  0  0  0  0  0  0  0  0  0  0  0
   20.5782    0.3839   -2.0172 C   0  0  0  0  0  0  0  0  0  0  0  0
   21.3457   -0.6417   -1.2379 C   0  0  0  0  0  3  0  0  0  0  0  0
   21.3152   -1.9519   -1.9925 C   0  0  0  0  0  2  0  0  0  0  0  0
   17.3787   -0.7494   -1.2533 S   0  0  0  0  0  0  0  0  0  0  0  0
   16.1502   -0.8154    0.1274 C   0  0  1  0  0  0  0  0  0  0  0  0
   14.8409   -0.2593   -0.4276 C   0  0  0  0  0  0  0  0  0  0  0  0
   15.9092   -2.2678    0.5609 C   0  0  0  0  0  0  0  0  0  0  0  0
   14.5051   -2.6891    0.4268 C   0  0  0  0  0  0  0  0  0  0  0  0
   14.1805   -4.1207    0.4065 C   0  0  2  0  0  0  0  0  0  0  0  0
   13.0762   -4.5182    1.3119 C   0  0  0  0  0  0  0  0  0  0  0  0
   15.2321   -5.1094    0.1515 C   0  0  1  0  0  0  0  0  0  0  0  0
   15.3472   -6.1916    1.2114 C   0  0  0  0  0  3  0  0  0  0  0  0
   16.5080   -7.1177    0.9617 C   0  0  0  0  0  0  0  0  0  0  0  0
   15.2212   -5.7598   -1.2226 C   0  0  0  0  0  0  0  0  0  0  0  0
   16.5271   -5.5604   -1.9664 C   0  0  0  0  0  0  0  0  0  0  0  0
   16.3959   -4.6338   -3.1466 C   0  0  2  0  0  0  0  0  0  0  0  0
   15.6305   -5.3696   -4.2345 C   0  0  0  0  0  2  0  0  0  0  0  0
  1  2  1  6
  2  3  1  1
  2  4  1  0
  4  5  1  0
  5  6  1  0
  6  7  1  0
  7  8  1  6
  7  9  1  0
  9 10  1  0
 10 11  1  0
 11 12  1  0
 12 13  1  1
 12 14  1  0
 14 15  1  0
 15 16  1  0
 16 17  1  1
 16 18  1  0
 18 19  1  0
 19 20  1  0
 20 21  1  6
 20 22  1  0
 22 23  1  0
 23 24  1  0
 24 25  1  6
 24 26  1  0
 26 27  1  0
 27 28  1  0
 28 29  1  0
 29 30  1  6
 29 31  1  0
 31 32  1  0
 32 33  1  0
 33 34  1  6
 33 35  1  0
 35 36  1  6
 36 37  1  0
 37 38  1  0
 38 39  1  0
 39 40  1  0
 40 41  1  6
 40 42  1  0
 42 43  1  0
 43 44  1  0
 33 45  1  0
 45 46  1  0
 46 47  1  6
 46 48  1  0
 48 49  1  0
 49 50  1  0
 50 51  1  1
 50 52  1  0
 52 53  1  1
 53 54  1  0
 52 55  1  0
 55 56  1  0
 56 57  1  0
 57 58  1  6
 29  1  1  0
 35  1  1  0
 57  1  1  0
M  RAD  8   9   2  14   2  17   3  28   2  30   3  34   3  43   2  44   3
M  RAD  2  53   2  58   3
M  END
>  <docking_score>  (1) 
51.122999999999998

$$$$
