
     RDKit          3D

 29 29  0  0  0  0  0  0  0  0999 V2000
    6.8297   14.2158    6.1940 C   0  0  0  0  0  0  0  0  0  0  0  0
    6.7033   13.0828    5.1867 C   0  0  0  0  0  0  0  0  0  0  0  0
    6.8022   13.6587    3.7959 C   0  0  0  0  0  0  0  0  0  0  0  0
    5.3263   12.4760    5.3478 C   0  0  0  0  0  0  0  0  0  0  0  0
    5.3030   11.7932    6.7146 C   0  0  0  0  0  0  0  0  0  0  0  0
    3.8858   11.3494    6.9579 C   0  0  0  0  0  0  0  0  0  0  0  0
    3.6041   11.4692    8.4419 C   0  0  1  0  0  0  0  0  0  0  0  0
    2.4464   10.5526    8.7896 C   0  0  0  0  0  0  0  0  0  0  0  0
    4.8249   11.1997    9.2743 C   0  0  0  0  0  3  0  0  0  0  0  0
    4.8538   12.1422   10.4342 C   0  0  1  0  0  0  0  0  0  0  0  0
    3.6442   13.0098   10.5417 C   0  0  0  0  0  0  0  0  0  0  0  0
    4.0437   14.2842   11.2750 C   0  0  0  0  0  0  0  0  0  0  0  0
    4.8339   13.8876   12.4901 C   0  0  0  0  0  0  0  0  0  0  0  0
    4.9686   15.1074   10.3888 C   0  0  0  0  0  0  0  0  0  0  0  0
    2.8029   15.0156   11.5859 C   0  0  0  0  0  0  0  0  0  0  0  0
    2.2600   14.8930   12.7784 C   0  0  0  0  0  0  0  0  0  0  0  0
    2.8704   14.0296   13.8271 C   0  0  0  0  0  0  0  0  0  0  0  0
    2.7120   14.6204   15.1625 C   0  0  0  0  0  0  0  0  0  0  0  0
    2.7823   13.9493   16.2909 C   0  0  0  0  0  0  0  0  0  0  0  0
    2.6181   14.5959   17.5306 O   0  0  0  0  0  0  0  0  0  0  0  0
    3.0407   12.4866   16.2155 C   0  0  2  0  0  0  0  0  0  0  0  0
    4.1238   12.0442   17.6208 S   0  0  0  0  0  0  0  0  0  0  0  0
    3.7525   12.1859   15.0549 O   0  0  0  0  0  0  0  0  0  0  0  0
    3.7467   10.5287   14.6941 S   0  0  0  0  0  0  0  0  0  0  0  0
    2.3529   10.0385   13.6493 C   0  0  0  0  0  0  0  0  0  0  0  0
    2.8497    9.8805   11.9119 S   0  0  0  0  0  0  0  0  0  0  0  0
    4.6544   10.0102   11.7330 C   0  0  0  0  0  0  0  0  0  0  0  0
    5.1076   11.4535   11.7512 C   0  0  1  0  0  0  0  0  0  0  0  0
    6.8534   11.5194   12.2300 S   0  0  0  0  0  0  0  0  0  0  0  0
  1  2  1  0
  2  3  1  0
  2  4  1  0
  4  5  1  0
  5  6  1  0
  6  7  1  0
  7  8  1  1
  7  9  1  0
 10  9  1  6
 10 11  1  0
 11 12  1  0
 12 13  1  0
 12 14  1  0
 12 15  1  0
 15 16  2  3
 16 17  1  0
 17 18  1  0
 18 19  2  3
 19 20  1  0
 19 21  1  0
 21 22  1  1
 21 23  1  0
 23 24  1  0
 24 25  1  0
 25 26  1  0
 26 27  1  0
 27 28  1  0
 28 29  1  6
 28 10  1  0
M  RAD  1   9   2
M  END
>  <docking_score>  (1) 
-2.073

$$$$

     RDKit          3D

 29 29  0  0  0  0  0  0  0  0999 V2000
   20.4362   -0.3729   -2.0739 C   0  0  0  0  0  0  0  0  0  0  0  0
   19.3741   -1.1464   -1.3069 C   0  0  0  0  0  0  0  0  0  0  0  0
   19.9969   -2.4040   -0.7535 C   0  0  0  0  0  0  0  0  0  0  0  0
   18.2976   -1.5485   -2.2916 C   0  0  0  0  0  0  0  0  0  0  0  0
   16.9587   -1.1713   -1.6589 C   0  0  0  0  0  0  0  0  0  0  0  0
   15.8941   -1.9337   -2.4003 C   0  0  0  0  0  0  0  0  0  0  0  0
   16.1723   -1.8064   -3.8843 C   0  0  1  0  0  0  0  0  0  0  0  0
   15.7911   -0.4070   -4.3291 C   0  0  0  0  0  0  0  0  0  0  0  0
   17.5925   -2.1549   -4.2269 C   0  0  0  0  0  3  0  0  0  0  0  0
   17.7355   -3.6411   -4.3015 C   0  0  1  0  0  0  0  0  0  0  0  0
   16.5716   -4.3322   -4.9299 C   0  0  0  0  0  0  0  0  0  0  0  0
   16.5175   -5.7532   -4.3829 C   0  0  0  0  0  0  0  0  0  0  0  0
   17.9039   -6.3282   -4.4576 C   0  0  0  0  0  0  0  0  0  0  0  0
   16.1285   -5.7129   -2.9113 C   0  0  0  0  0  0  0  0  0  0  0  0
   15.5244   -6.4910   -5.1831 C   0  0  0  0  0  0  0  0  0  0  0  0
   15.9289   -7.2443   -6.1836 C   0  0  0  0  0  0  0  0  0  0  0  0
   17.3717   -7.3708   -6.5295 C   0  0  0  0  0  0  0  0  0  0  0  0
   17.6945   -8.7310   -6.9803 C   0  0  0  0  0  0  0  0  0  0  0  0
   18.7442   -9.0500   -7.7048 C   0  0  0  0  0  0  0  0  0  0  0  0
   18.9785  -10.3824   -8.0945 O   0  0  0  0  0  0  0  0  0  0  0  0
   19.6750   -7.9592   -8.0990 C   0  0  2  0  0  0  0  0  0  0  0  0
   21.3729   -8.6358   -8.0447 S   0  0  0  0  0  0  0  0  0  0  0  0
   19.6277   -6.9281   -7.1617 O   0  0  0  0  0  0  0  0  0  0  0  0
   20.3450   -5.4980   -7.7247 S   0  0  0  0  0  0  0  0  0  0  0  0
   19.1785   -4.4137   -8.5838 C   0  0  0  0  0  0  0  0  0  0  0  0
   18.5966   -3.0773   -7.5040 S   0  0  0  0  0  0  0  0  0  0  0  0
   19.5294   -3.0436   -5.9438 C   0  0  0  0  0  0  0  0  0  0  0  0
   19.0132   -4.0806   -4.9705 C   0  0  1  0  0  0  0  0  0  0  0  0
   20.3143   -4.4650   -3.7703 S   0  0  0  0  0  0  0  0  0  0  0  0
  1  2  1  0
  2  3  1  0
  2  4  1  0
  4  5  1  0
  5  6  1  0
  6  7  1  0
  7  8  1  1
  7  9  1  0
 10  9  1  6
 10 11  1  0
 11 12  1  0
 12 13  1  0
 12 14  1  0
 12 15  1  0
 15 16  2  3
 16 17  1  0
 17 18  1  0
 18 19  2  3
 19 20  1  0
 19 21  1  0
 21 22  1  1
 21 23  1  0
 23 24  1  0
 24 25  1  0
 25 26  1  0
 26 27  1  0
 27 28  1  0
 28 29  1  1
 28 10  1  0
M  RAD  1   9   2
M  END
>  <docking_score>  (2) 
-1.276

$$$$

     RDKit          3D

 29 29  0  0  0  0  0  0  0  0999 V2000
   20.8331   -0.7674   -6.6131 C   0  0  0  0  0  0  0  0  0  0  0  0
   19.5282    0.0129   -6.6635 C   0  0  0  0  0  0  0  0  0  0  0  0
   19.4656    0.9285   -5.4663 C   0  0  0  0  0  0  0  0  0  0  0  0
   18.3932   -0.9822   -6.5546 C   0  0  0  0  0  0  0  0  0  0  0  0
   17.4930   -0.5009   -5.4174 C   0  0  0  0  0  0  0  0  0  0  0  0
   16.0785   -0.8343   -5.8079 C   0  0  0  0  0  0  0  0  0  0  0  0
   15.2896   -1.0928   -4.5404 C   0  0  1  0  0  0  0  0  0  0  0  0
   14.0846   -1.9468   -4.8869 C   0  0  0  0  0  0  0  0  0  0  0  0
   16.1368   -1.7003   -3.4592 C   0  0  0  0  0  3  0  0  0  0  0  0
   16.3477   -3.1515   -3.7491 C   0  0  1  0  0  0  0  0  0  0  0  0
   16.6039   -3.4520   -5.1884 C   0  0  0  0  0  0  0  0  0  0  0  0
   16.1602   -4.8849   -5.4555 C   0  0  0  0  0  0  0  0  0  0  0  0
   16.7197   -5.7512   -4.3626 C   0  0  0  0  0  0  0  0  0  0  0  0
   14.6428   -4.9691   -5.3608 C   0  0  0  0  0  0  0  0  0  0  0  0
   16.6372   -5.2452   -6.8022 C   0  0  0  0  0  0  0  0  0  0  0  0
   17.7603   -5.9185   -6.9331 C   0  0  0  0  0  0  0  0  0  0  0  0
   18.5658   -6.3276   -5.7493 C   0  0  0  0  0  0  0  0  0  0  0  0
   19.1822   -7.6450   -5.9534 C   0  0  0  0  0  0  0  0  0  0  0  0
   20.2283   -8.0921   -5.2944 C   0  0  0  0  0  0  0  0  0  0  0  0
   20.7565   -9.3711   -5.5538 O   0  0  0  0  0  0  0  0  0  0  0  0
   20.8352   -7.2040   -4.2673 C   0  0  2  0  0  0  0  0  0  0  0  0
   21.3811   -8.2598   -2.8777 S   0  0  0  0  0  0  0  0  0  0  0  0
   19.8706   -6.3381   -3.7537 O   0  0  0  0  0  0  0  0  0  0  0  0
   20.5454   -5.0494   -2.8815 S   0  0  0  0  0  0  0  0  0  0  0  0
   20.9062   -3.6091   -3.9159 C   0  0  0  0  0  0  0  0  0  0  0  0
   19.6134   -2.3454   -3.7673 S   0  0  0  0  0  0  0  0  0  0  0  0
   18.4445   -2.7583   -2.4374 C   0  0  0  0  0  0  0  0  0  0  0  0
   17.4236   -3.7757   -2.8972 C   0  0  1  0  0  0  0  0  0  0  0  0
   16.7408   -4.6244   -1.4498 S   0  0  0  0  0  0  0  0  0  0  0  0
  1  2  1  0
  2  3  1  0
  2  4  1  0
  4  5  1  0
  5  6  1  0
  6  7  1  0
  7  8  1  6
  7  9  1  0
 10  9  1  6
 10 11  1  0
 11 12  1  0
 12 13  1  0
 12 14  1  0
 12 15  1  0
 15 16  2  3
 16 17  1  0
 17 18  1  0
 18 19  2  3
 19 20  1  0
 19 21  1  0
 21 22  1  1
 21 23  1  0
 23 24  1  0
 24 25  1  0
 25 26  1  0
 26 27  1  0
 27 28  1  0
 28 29  1  1
 28 10  1  0
M  RAD  1   9   2
M  END
>  <docking_score>  (3) 
-0.70799999999999996

$$$$
