
     RDKit          3D

 11 11  0  0  0  0  0  0  0  0999 V2000
   16.9859   -5.4038   -3.0322 O   0  0  0  0  0  0  0  0  0  0  0  0
   16.3298   -4.1907   -2.8508 C   0  0  0  0  0  0  0  0  0  0  0  0
   16.1929   -3.4548   -4.1668 C   0  0  1  0  0  0  0  0  0  0  0  0
   14.9445   -3.8622   -4.7663 N   0  0  0  0  0  0  0  0  0  0  0  0
   14.9360   -3.4138   -6.1456 C   0  0  0  0  0  3  0  0  0  0  0  0
   15.2257   -1.9465   -6.2577 C   0  0  2  0  0  0  0  0  0  0  0  0
   16.3455   -1.7780   -7.0561 O   0  0  0  0  0  0  0  0  0  0  0  0
   15.3140   -1.2472   -4.9378 C   0  0  1  0  0  0  0  0  0  0  0  0
   14.0354   -0.9798   -4.4550 O   0  0  0  0  0  0  0  0  0  0  0  0
   16.1689   -1.9590   -3.9298 C   0  0  1  0  0  0  0  0  0  0  0  0
   15.8085   -1.6484   -2.6242 O   0  0  0  0  0  0  0  0  0  0  0  0
  1  2  1  0
  3  2  1  1
  3  4  1  0
  4  5  1  0
  5  6  1  0
  6  7  1  1
  6  8  1  0
  8  9  1  1
  8 10  1  0
 10 11  1  1
 10  3  1  0
M  RAD  1   5   2
M  END
>  <docking_score>  (1) 
-3.4009999999999998

$$$$

     RDKit          3D

 11 11  0  0  0  0  0  0  0  0999 V2000
   13.2468   -0.1457   -4.2727 O   0  0  0  0  0  0  0  0  0  0  0  0
   14.4174   -0.8812   -4.1182 C   0  0  0  0  0  0  0  0  0  0  0  0
   14.5659   -1.8909   -5.2364 C   0  0  1  0  0  0  0  0  0  0  0  0
   15.4870   -1.3400   -6.2019 N   0  0  0  0  0  0  0  0  0  0  0  0
   15.4101   -2.1393   -7.4097 C   0  0  0  0  0  3  0  0  0  0  0  0
   15.6103   -3.5986   -7.1273 C   0  0  2  0  0  0  0  0  0  0  0  0
   14.4921   -4.2898   -7.5652 O   0  0  0  0  0  0  0  0  0  0  0  0
   15.9848   -3.8920   -5.7086 C   0  0  1  0  0  0  0  0  0  0  0  0
   17.3418   -3.6462   -5.5145 O   0  0  0  0  0  0  0  0  0  0  0  0
   15.1259   -3.1906   -4.6967 C   0  0  1  0  0  0  0  0  0  0  0  0
   15.7849   -3.0067   -3.4872 O   0  0  0  0  0  0  0  0  0  0  0  0
  1  2  1  0
  3  2  1  1
  3  4  1  0
  4  5  1  0
  5  6  1  0
  6  7  1  1
  6  8  1  0
  8  9  1  6
  8 10  1  0
 10 11  1  1
 10  3  1  0
M  RAD  1   5   2
M  END
>  <docking_score>  (2) 
-3.3919999999999999

$$$$

     RDKit          3D

 11 11  0  0  0  0  0  0  0  0999 V2000
   16.5792   -3.8778   -2.0610 O   0  0  0  0  0  0  0  0  0  0  0  0
   16.1150   -3.2304   -3.2013 C   0  0  0  0  0  0  0  0  0  0  0  0
   16.1303   -4.1663   -4.3911 C   0  0  1  0  0  0  0  0  0  0  0  0
   15.6774   -5.4589   -3.9350 N   0  0  0  0  0  0  0  0  0  0  0  0
   15.9707   -6.4331   -4.9686 C   0  0  0  0  0  3  0  0  0  0  0  0
   15.4175   -6.0189   -6.2997 C   0  0  2  0  0  0  0  0  0  0  0  0
   16.4624   -5.9405   -7.2064 O   0  0  0  0  0  0  0  0  0  0  0  0
   14.5726   -4.7851   -6.2436 C   0  0  1  0  0  0  0  0  0  0  0  0
   13.2958   -5.1036   -5.7879 O   0  0  0  0  0  0  0  0  0  0  0  0
   15.1928   -3.6596   -5.4675 C   0  0  1  0  0  0  0  0  0  0  0  0
   14.2392   -2.7889   -4.9542 O   0  0  0  0  0  0  0  0  0  0  0  0
  1  2  1  0
  3  2  1  1
  3  4  1  0
  4  5  1  0
  5  6  1  0
  6  7  1  6
  6  8  1  0
  8  9  1  1
  8 10  1  0
 10 11  1  1
 10  3  1  0
M  RAD  1   5   2
M  END
>  <docking_score>  (3) 
-3.1869999999999998

$$$$
