
     RDKit          3D

 61 60  0  0  0  0  0  0  0  0999 V2000
    2.4513    9.3777    7.4657 C   0  0  0  0  0  0  0  0  0  0  0  0
    3.3335   10.3021    8.2444 C   0  0  0  0  0  0  0  0  0  0  0  0
    4.7827    9.9124    8.2034 C   0  0  0  0  0  0  0  0  0  0  0  0
    2.8734   10.4398    9.6678 C   0  0  0  0  0  0  0  0  0  0  0  0
    3.7805   11.4078   10.4064 C   0  0  0  0  0  0  0  0  0  0  0  0
    3.2314   12.7873   10.2177 C   0  0  0  0  0  0  0  0  0  0  0  0
    4.2280   13.8623   10.4378 C   0  0  1  0  0  0  0  0  0  0  0  0
    4.3856   14.8454    9.3271 C   0  0  0  0  0  0  0  0  0  0  0  0
    4.2251   14.4333   11.8065 C   0  0  0  0  0  3  0  0  0  0  0  0
    3.5217   13.5490   12.7866 C   0  0  0  0  0  0  0  0  0  0  0  0
    4.5419   12.7723   13.5756 C   0  0  0  0  0  0  0  0  0  0  0  0
    5.7117   12.4462   12.7202 C   0  0  1  0  0  0  0  0  0  0  0  0
    5.4858   11.2597   11.8245 C   0  0  0  0  0  0  0  0  0  0  0  0
    6.4123   13.5937   12.0927 C   0  0  0  0  0  3  0  0  0  0  0  0
    7.7782   13.7830   12.7414 C   0  0  0  0  0  0  0  0  0  0  0  0
    8.2372   12.5124   13.4159 C   0  0  2  0  0  0  0  0  0  0  0  0
    7.2951   12.0123   14.3816 N   0  0  0  0  0  1  0  0  0  0  0  0
    9.5648   12.7736   14.0881 C   0  0  0  0  0  3  0  0  0  0  0  0
   10.7331   12.3357   13.2641 C   0  0  0  0  0  0  0  0  0  0  0  0
   12.0337   12.8499   13.7683 C   0  0  0  0  0  0  0  0  0  0  0  0
   12.3654   14.0970   13.5114 C   0  0  0  0  0  0  0  0  0  0  0  0
   13.6509   14.6344   13.9994 C   0  0  0  0  0  0  0  0  0  0  0  0
   11.4549   14.9654   12.7397 C   0  0  1  0  0  0  0  0  0  0  0  0
   10.5057   15.9761   13.9178 S   0  0  0  0  0  0  0  0  0  0  0  0
   12.0972   15.7550   11.7981 O   0  0  0  0  0  0  0  0  0  0  0  0
   12.2695   14.9578   10.6677 C   0  0  0  0  0  3  0  0  0  0  0  0
   10.9050   14.4898   10.2201 C   0  0  0  0  0  0  0  0  0  0  0  0
   11.0109   13.7892    8.8788 C   0  0  1  0  0  0  0  0  0  0  0  0
   10.2796   12.4617    8.8983 C   0  0  0  0  0  2  0  0  0  0  0  0
   10.4714   14.6715    7.8110 C   0  0  0  0  0  3  0  0  0  0  0  0
   10.9763   16.0718    7.8008 C   0  0  0  0  0  0  0  0  0  0  0  0
   10.6282   14.0522    6.4479 C   0  0  0  0  0  0  0  0  0  0  0  0
   11.7675   13.0487    6.4596 C   0  0  0  0  0  2  0  0  0  0  0  0
   10.9510   15.0742    5.3803 C   0  0  0  0  0  2  0  0  0  0  0  0
    9.2930   13.3617    6.1383 C   0  0  0  0  0  3  0  0  0  0  0  0
    8.3387   13.8125    7.2225 C   0  0  0  0  0  0  0  0  0  0  0  0
    7.2787   12.8581    7.2181 O   0  0  0  0  0  0  0  0  0  0  0  0
    6.1347   13.6738    7.0417 C   0  0  1  0  0  0  0  0  0  0  0  0
    6.6116   15.1327    6.8855 C   0  0  0  0  0  2  0  0  0  0  0  0
    5.3849   13.2429    5.8510 C   0  0  0  0  0  0  0  0  0  0  0  0
    5.8200   12.1767    4.9868 C   0  0  1  0  0  0  0  0  0  0  0  0
    6.2601   12.7848    3.6333 C   0  0  0  0  0  0  0  0  0  0  0  0
    5.0536   12.9696    2.7315 C   0  0  0  0  0  2  0  0  0  0  0  0
    6.7490   11.1762    5.4620 C   0  0  0  0  0  0  0  0  0  0  0  0
    6.5280    9.7417    5.2090 C   0  0  0  0  0  0  0  0  0  0  0  0
    6.1237    8.9611    6.4185 C   0  0  2  0  0  0  0  0  0  0  0  0
    7.1088    9.1813    7.4054 O   0  0  0  0  0  0  0  0  0  0  0  0
    6.0887    7.4977    6.0726 C   0  0  1  0  0  0  0  0  0  0  0  0
    7.5169    7.0197    5.9258 C   0  0  1  0  0  0  0  0  0  0  0  0
    8.0582    7.6145    4.6437 C   0  0  0  0  0  0  0  0  0  0  0  0
    8.3384    7.4270    7.1306 C   0  0  0  0  0  0  0  0  0  0  0  0
    9.2112    6.2584    7.5210 C   0  0  0  0  0  3  0  0  0  0  0  0
    9.1744    5.1684    6.4620 C   0  0  1  0  0  0  0  0  0  0  0  0
   10.2931    5.3123    5.4686 C   0  0  0  0  0  2  0  0  0  0  0  0
    9.1704    3.8070    7.1127 C   0  0  0  0  0  0  0  0  0  0  0  0
    8.0232    3.0102    6.5098 C   0  0  0  0  0  0  0  0  0  0  0  0
    7.2178    2.3001    7.5560 C   0  0  0  0  0  0  0  0  0  0  0  0
    5.8835    3.0256    7.6784 C   0  0  0  0  0  3  0  0  0  0  0  0
    5.8014    4.2360    6.3414 S   0  0  0  0  0  0  0  0  0  0  0  0
    4.9997    3.5287    4.9572 N   0  0  0  0  0  1  0  0  0  0  0  0
    5.3030    6.6027    7.4364 S   0  0  0  0  0  0  0  0  0  0  0  0
  1  2  1  0
  2  3  1  0
  2  4  1  0
  4  5  1  0
  5  6  1  0
  6  7  1  0
  7  8  1  6
  7  9  1  0
  9 10  1  0
 10 11  1  0
 11 12  1  0
 12 13  1  6
 12 14  1  0
 14 15  1  0
 15 16  1  0
 16 17  1  1
 16 18  1  0
 18 19  1  0
 19 20  1  0
 20 21  2  3
 21 22  1  0
 21 23  1  0
 23 24  1  1
 23 25  1  0
 25 26  1  0
 26 27  1  0
 27 28  1  0
 28 29  1  1
 28 30  1  0
 30 31  1  0
 30 32  1  0
 32 33  1  0
 32 34  1  0
 32 35  1  0
 35 36  1  0
 36 37  1  0
 37 38  1  0
 38 39  1  6
 38 40  1  0
 41 40  1  1
 41 42  1  0
 42 43  1  0
 41 44  1  0
 44 45  1  0
 45 46  1  0
 46 47  1  1
 46 48  1  0
 48 49  1  0
 49 50  1  6
 49 51  1  0
 51 52  1  0
 52 53  1  0
 53 54  1  6
 53 55  1  0
 55 56  1  0
 56 57  1  0
 57 58  1  0
 58 59  1  0
 59 60  1  0
 48 61  1  1
M  RAD  8   9   2  14   2  17   2  18   2  26   2  29   3  30   2  33   3
M  RAD  8  34   3  35   2  39   3  43   3  52   2  54   3  58   2  60   2
M  CHG  2  17   1  60   1
M  END
>  <docking_score>  (1) 
39.914999999999999

$$$$
