
     RDKit          3D

 11 11  0  0  0  0  0  0  0  0999 V2000
  136.6386  121.0255  139.1726 C   0  0  0  0  0  0  0  0  0  0  0  0
  135.2911  120.5701  139.7009 C   0  0  0  0  0  0  0  0  0  0  0  0
  134.4468  121.7027  140.1112 C   0  0  0  0  0  0  0  0  0  0  0  0
  133.9169  122.5731  139.2673 C   0  0  0  0  0  0  0  0  0  0  0  0
  133.1365  123.5975  139.8017 O   0  0  0  0  0  0  0  0  0  0  0  0
  133.3204  124.8864  139.2125 C   0  0  0  0  0  0  0  0  0  0  0  0
  134.0858  125.9596  140.4263 S   0  0  0  0  0  0  0  0  0  0  0  0
  135.7459  125.4167  140.6921 N   0  0  0  0  0  0  0  0  0  0  0  0
  136.0042  124.0272  140.8390 C   0  0  0  0  0  0  0  0  0  0  0  0
  136.8259  123.4019  140.0101 C   0  0  0  0  0  0  0  0  0  0  0  0
  137.1304  122.0318  140.0919 N   0  0  0  0  0  0  0  0  0  0  0  0
  1  2  1  0
  2  3  1  0
  3  4  2  3
  4  5  1  0
  5  6  1  0
  6  7  1  0
  7  8  1  0
  8  9  1  0
  9 10  2  3
 10 11  1  0
 11  1  1  0
M  END
>  <docking_score>  (1) 
-4.4039999999999999

$$$$

     RDKit          3D

 11 11  0  0  0  0  0  0  0  0999 V2000
  134.5767  127.4938  148.2014 C   0  0  0  0  0  0  0  0  0  0  0  0
  135.5332  128.6170  147.8468 C   0  0  0  0  0  0  0  0  0  0  0  0
  135.1717  129.2716  146.5800 C   0  0  0  0  0  0  0  0  0  0  0  0
  134.0950  130.0232  146.4175 C   0  0  0  0  0  0  0  0  0  0  0  0
  133.8806  130.5802  145.1575 O   0  0  0  0  0  0  0  0  0  0  0  0
  132.5275  130.5671  144.6980 C   0  0  0  0  0  0  0  0  0  0  0  0
  132.4129  129.4430  143.3072 S   0  0  0  0  0  0  0  0  0  0  0  0
  132.6362  127.7924  143.8964 N   0  0  0  0  0  0  0  0  0  0  0  0
  133.6745  127.5252  144.8288 C   0  0  0  0  0  0  0  0  0  0  0  0
  133.3983  127.0138  146.0186 C   0  0  0  0  0  0  0  0  0  0  0  0
  134.3697  126.7227  146.9923 N   0  0  0  0  0  0  0  0  0  0  0  0
  1  2  1  0
  2  3  1  0
  3  4  2  3
  4  5  1  0
  5  6  1  0
  6  7  1  0
  7  8  1  0
  8  9  1  0
  9 10  2  3
 10 11  1  0
 11  1  1  0
M  END
>  <docking_score>  (2) 
-4.3810000000000002

$$$$

     RDKit          3D

 11 11  0  0  0  0  0  0  0  0999 V2000
  134.9817  128.2326  148.0310 C   0  0  0  0  0  0  0  0  0  0  0  0
  133.9438  127.1258  148.0361 C   0  0  0  0  0  0  0  0  0  0  0  0
  133.1064  127.1477  146.8268 C   0  0  0  0  0  0  0  0  0  0  0  0
  133.5476  126.8442  145.6169 C   0  0  0  0  0  0  0  0  0  0  0  0
  132.6375  126.9093  144.5627 O   0  0  0  0  0  0  0  0  0  0  0  0
  133.1384  127.4695  143.3472 C   0  0  0  0  0  0  0  0  0  0  0  0
  132.3143  129.0351  143.0636 S   0  0  0  0  0  0  0  0  0  0  0  0
  132.8682  130.1921  144.2785 N   0  0  0  0  0  0  0  0  0  0  0  0
  132.9677  129.7776  145.6340 C   0  0  0  0  0  0  0  0  0  0  0  0
  134.1256  129.8335  146.2737 C   0  0  0  0  0  0  0  0  0  0  0  0
  134.3022  129.4419  147.6124 N   0  0  0  0  0  0  0  0  0  0  0  0
  1  2  1  0
  2  3  1  0
  3  4  2  3
  4  5  1  0
  5  6  1  0
  6  7  1  0
  7  8  1  0
  8  9  1  0
  9 10  2  3
 10 11  1  0
 11  1  1  0
M  END
>  <docking_score>  (3) 
-4.2960000000000003

$$$$
