
     RDKit          3D

 10 10  0  0  0  0  0  0  0  0999 V2000
    5.8021   -5.0401   -7.9989 C   0  0  0  0  0  0  0  0  0  0  0  0
    4.6911   -4.6124   -7.1029 C   0  0  0  0  0  0  0  0  0  0  0  0
    3.3781   -4.4538   -7.7922 C   0  0  0  0  0  0  0  0  0  0  0  0
    4.9913   -3.3595   -6.3121 C   0  0  0  0  0  0  0  0  0  0  0  0
    5.9557   -2.5349   -7.1015 C   0  0  1  0  0  0  0  0  0  0  0  0
    5.3731   -1.2309   -7.6457 C   0  0  0  0  0  0  0  0  0  0  0  0
    6.6486   -0.4946   -7.2329 C   0  0  1  0  0  0  0  0  0  0  0  0
    6.3082    0.7860   -6.4842 C   0  0  0  0  0  0  0  0  0  0  0  0
    6.9163   -1.6840   -6.3073 C   0  0  1  0  0  0  0  0  0  0  0  0
    6.4998   -1.3931   -4.8834 C   0  0  0  0  0  2  0  0  0  0  0  0
  1  2  1  0
  2  3  1  0
  2  4  1  0
  5  4  1  1
  5  6  1  0
  6  7  1  0
  7  8  1  1
  7  9  1  0
  9 10  1  1
  9  5  1  0
M  RAD  1  10   3
M  END
>  <docking_score>  (1) 
-4.3799999999999999

$$$$

     RDKit          3D

 10 10  0  0  0  0  0  0  0  0999 V2000
    3.1478   -4.4352   -7.0628 C   0  0  0  0  0  0  0  0  0  0  0  0
    4.4563   -3.8383   -7.4523 C   0  0  0  0  0  0  0  0  0  0  0  0
    5.5248   -4.8405   -7.7319 C   0  0  0  0  0  0  0  0  0  0  0  0
    4.9791   -2.8164   -6.4687 C   0  0  0  0  0  0  0  0  0  0  0  0
    5.9262   -1.9177   -7.1960 C   0  0  1  0  0  0  0  0  0  0  0  0
    5.3960   -0.5046   -7.4368 C   0  0  0  0  0  0  0  0  0  0  0  0
    6.7561    0.0687   -7.0355 C   0  0  1  0  0  0  0  0  0  0  0  0
    6.5838    1.2075   -6.0405 C   0  0  0  0  0  0  0  0  0  0  0  0
    7.0173   -1.2839   -6.3681 C   0  0  1  0  0  0  0  0  0  0  0  0
    6.7570   -1.2360   -4.8798 C   0  0  0  0  0  2  0  0  0  0  0  0
  1  2  1  0
  2  3  1  0
  2  4  1  0
  5  4  1  1
  5  6  1  0
  6  7  1  0
  7  8  1  1
  7  9  1  0
  9 10  1  1
  9  5  1  0
M  RAD  1  10   3
M  END
>  <docking_score>  (2) 
-4.2060000000000004

$$$$

     RDKit          3D

 10 10  0  0  0  0  0  0  0  0999 V2000
    6.3434   -0.1808   -7.6126 C   0  0  0  0  0  0  0  0  0  0  0  0
    5.6973   -1.3559   -6.9632 C   0  0  0  0  0  0  0  0  0  0  0  0
    6.3937   -1.8327   -5.7335 C   0  0  0  0  0  0  0  0  0  0  0  0
    5.4786   -2.5259   -7.8951 C   0  0  0  0  0  0  0  0  0  0  0  0
    4.7129   -3.5719   -7.1514 C   0  0  1  0  0  0  0  0  0  0  0  0
    3.4328   -4.0319   -7.8485 C   0  0  0  0  0  0  0  0  0  0  0  0
    3.7738   -5.4831   -7.5061 C   0  0  1  0  0  0  0  0  0  0  0  0
    3.6194   -6.3721   -8.7318 C   0  0  0  0  0  0  0  0  0  0  0  0
    5.2073   -4.9908   -7.2921 C   0  0  1  0  0  0  0  0  0  0  0  0
    6.0791   -5.2571   -8.4981 C   0  0  0  0  0  2  0  0  0  0  0  0
  1  2  1  0
  2  3  1  0
  2  4  1  0
  5  4  1  6
  5  6  1  0
  6  7  1  0
  7  8  1  6
  7  9  1  0
  9 10  1  6
  9  5  1  0
M  RAD  1  10   3
M  END
>  <docking_score>  (3) 
-4.0259999999999998

$$$$
