
     RDKit          3D

  9  8  0  0  0  0  0  0  0  0999 V2000
    5.9584    1.7029   -6.5114 C   0  0  0  0  0  0  0  0  0  0  0  0
    6.8653    0.9443   -7.2347 O   0  0  0  0  0  0  0  0  0  0  0  0
    6.1394   -0.0202   -7.9362 C   0  0  0  0  0  3  0  0  0  0  0  0
    5.4519   -0.8121   -7.0326 O   0  0  0  0  0  0  0  0  0  0  0  0
    6.2223   -1.9018   -6.6217 C   0  0  2  0  0  0  0  0  0  0  0  0
    5.5028   -3.1449   -7.0750 C   0  0  0  0  0  0  0  0  0  0  0  0
    5.0327   -3.0636   -8.3703 O   0  0  0  0  0  0  0  0  0  0  0  0
    6.3756   -1.8494   -5.1168 C   0  0  0  0  0  3  0  0  0  0  0  0
    7.4054   -0.9957   -4.7398 O   0  0  0  0  0  0  0  0  0  0  0  0
  1  2  1  0
  2  3  1  0
  3  4  1  0
  4  5  1  0
  5  6  1  1
  6  7  1  0
  5  8  1  0
  8  9  1  0
M  RAD  2   3   2   8   2
M  END
>  <docking_score>  (1) 
-3.524

$$$$

     RDKit          3D

  9  8  0  0  0  0  0  0  0  0999 V2000
    7.0861   -0.3122   -5.3813 C   0  0  0  0  0  0  0  0  0  0  0  0
    6.8092   -1.6702   -5.3839 O   0  0  0  0  0  0  0  0  0  0  0  0
    6.0706   -1.9451   -6.5364 C   0  0  0  0  0  3  0  0  0  0  0  0
    4.8830   -2.5577   -6.1749 O   0  0  0  0  0  0  0  0  0  0  0  0
    4.8584   -3.8955   -6.5741 C   0  0  2  0  0  0  0  0  0  0  0  0
    5.7452   -4.0091   -7.7863 C   0  0  0  0  0  0  0  0  0  0  0  0
    6.1403   -5.3039   -8.0559 O   0  0  0  0  0  0  0  0  0  0  0  0
    3.4279   -4.2869   -6.8765 C   0  0  0  0  0  3  0  0  0  0  0  0
    3.2276   -4.4688   -8.2396 O   0  0  0  0  0  0  0  0  0  0  0  0
  1  2  1  0
  2  3  1  0
  3  4  1  0
  4  5  1  0
  5  6  1  6
  6  7  1  0
  5  8  1  0
  8  9  1  0
M  RAD  2   3   2   8   2
M  END
>  <docking_score>  (2) 
-2.7690000000000001

$$$$

     RDKit          3D

  9  8  0  0  0  0  0  0  0  0999 V2000
   14.7071   -0.6170   -5.7258 C   0  0  0  0  0  0  0  0  0  0  0  0
   14.1809   -1.5053   -4.8011 O   0  0  0  0  0  0  0  0  0  0  0  0
   14.6092   -2.7852   -5.1589 C   0  0  0  0  0  3  0  0  0  0  0  0
   15.9071   -2.9669   -4.7130 O   0  0  0  0  0  0  0  0  0  0  0  0
   15.9319   -3.4905   -3.4187 C   0  0  2  0  0  0  0  0  0  0  0  0
   16.8165   -2.5901   -2.5969 C   0  0  0  0  0  0  0  0  0  0  0  0
   16.1339   -1.5505   -1.9981 O   0  0  0  0  0  0  0  0  0  0  0  0
   16.4596   -4.9079   -3.4773 C   0  0  0  0  0  3  0  0  0  0  0  0
   17.2356   -5.2081   -2.3643 O   0  0  0  0  0  0  0  0  0  0  0  0
  1  2  1  0
  2  3  1  0
  3  4  1  0
  4  5  1  0
  5  6  1  1
  6  7  1  0
  5  8  1  0
  8  9  1  0
M  RAD  2   3   2   8   2
M  END
>  <docking_score>  (3) 
-2.7050000000000001

$$$$
