
     RDKit          3D

 26 25  0  0  0  0  0  0  0  0999 V2000
   11.7159   12.9848   11.6167 C   0  0  0  0  0  0  0  0  0  0  0  0
   11.0589   14.3058   11.9021 C   0  0  0  0  0  0  0  0  0  0  0  0
   11.9303   15.0315   12.9175 C   0  0  0  0  0  0  0  0  0  0  0  0
    9.6898   14.1773   12.5044 C   0  0  0  0  0  0  0  0  0  0  0  0
    8.7079   13.4653   11.6291 C   0  0  0  0  0  0  0  0  0  0  0  0
    7.3643   14.1420   11.5566 C   0  0  0  0  0  0  0  0  0  0  0  0
    6.3555   13.1173   11.0854 C   0  0  1  0  0  0  0  0  0  0  0  0
    6.2348   12.0072   12.0945 C   0  0  0  0  0  0  0  0  0  0  0  0
    5.0462   13.7455   10.7247 C   0  0  0  0  0  3  0  0  0  0  0  0
    4.2277   12.8993    9.7757 C   0  0  0  0  0  0  0  0  0  0  0  0
    5.0569   12.5126    8.5780 C   0  0  0  0  0  0  0  0  0  0  0  0
    4.8924   13.6583    7.5321 C   0  0  1  0  0  0  0  0  0  0  0  0
    6.3162   14.1569    7.2672 C   0  0  0  0  0  0  0  0  0  0  0  0
    4.2359   13.0814    6.3482 C   0  0  0  0  0  3  0  0  0  0  0  0
    4.2225   11.6628    6.0746 C   0  0  0  0  0  0  0  0  0  0  0  0
    4.9407   11.1579    4.9191 C   0  0  2  0  0  0  0  0  0  0  0  0
    6.2849   10.5693    5.0819 C   0  0  0  0  0  0  0  0  0  0  0  0
    4.8013   12.0078    3.6699 C   0  0  0  0  0  0  0  0  0  0  0  0
    6.1719   12.0133    2.9959 C   0  0  0  0  0  0  0  0  0  0  0  0
    6.3039   13.2617    2.1404 C   0  0  2  0  0  0  0  0  0  0  0  0
    7.0199   12.9072    0.9989 O   0  0  0  0  0  0  0  0  0  0  0  0
    7.1499   14.2399    2.9303 C   0  0  0  0  0  0  0  0  0  0  0  0
    8.3604   13.5304    3.5064 C   0  0  0  0  0  0  0  0  0  0  0  0
    9.5527   14.3894    3.3608 C   0  0  0  0  0  0  0  0  0  0  0  0
   10.3046   14.7981    4.4543 O   0  0  0  0  0  0  0  0  0  0  0  0
    9.9295   14.7821    2.2331 O   0  0  0  0  0  0  0  0  0  0  0  0
  1  2  1  0
  2  3  1  0
  2  4  1  0
  4  5  1  0
  5  6  1  0
  6  7  1  0
  7  8  1  1
  7  9  1  0
  9 10  1  0
 10 11  1  0
 11 12  1  0
 12 13  1  6
 12 14  1  0
 14 15  1  0
 15 16  1  0
 16 17  1  1
 16 18  1  0
 18 19  1  0
 19 20  1  0
 20 21  1  6
 20 22  1  0
 22 23  1  0
 23 24  1  0
 24 25  1  0
 24 26  2  0
M  RAD  2   9   2  14   2
M  END
>  <docking_score>  (1) 
-3.161

$$$$

     RDKit          3D

 26 25  0  0  0  0  0  0  0  0999 V2000
   13.4370   -5.3095   -7.2609 C   0  0  0  0  0  0  0  0  0  0  0  0
   14.1651   -5.1689   -5.9539 C   0  0  0  0  0  0  0  0  0  0  0  0
   13.8129   -3.8006   -5.3877 C   0  0  0  0  0  0  0  0  0  0  0  0
   15.6592   -5.2207   -6.0908 C   0  0  0  0  0  0  0  0  0  0  0  0
   16.1910   -6.5820   -6.4093 C   0  0  0  0  0  0  0  0  0  0  0  0
   16.1657   -7.5279   -5.2375 C   0  0  0  0  0  0  0  0  0  0  0  0
   17.3531   -8.4568   -5.3676 C   0  0  1  0  0  0  0  0  0  0  0  0
   16.8846   -9.8624   -5.6325 C   0  0  0  0  0  0  0  0  0  0  0  0
   18.3477   -7.9573   -6.3678 C   0  0  0  0  0  3  0  0  0  0  0  0
   19.7623   -8.3953   -6.0621 C   0  0  0  0  0  0  0  0  0  0  0  0
   20.2655   -7.6985   -4.8239 C   0  0  0  0  0  0  0  0  0  0  0  0
   19.6614   -6.2604   -4.8440 C   0  0  1  0  0  0  0  0  0  0  0  0
   19.3463   -5.9452   -3.3786 C   0  0  0  0  0  0  0  0  0  0  0  0
   20.6695   -5.3688   -5.4392 C   0  0  0  0  0  3  0  0  0  0  0  0
   20.5409   -4.8204   -6.7697 C   0  0  0  0  0  0  0  0  0  0  0  0
   19.2896   -4.1984   -7.1611 C   0  0  2  0  0  0  0  0  0  0  0  0
   19.1747   -3.5264   -8.4707 C   0  0  0  0  0  0  0  0  0  0  0  0
   18.5729   -3.4660   -6.0421 C   0  0  0  0  0  0  0  0  0  0  0  0
   19.3071   -2.1399   -5.8540 C   0  0  0  0  0  0  0  0  0  0  0  0
   18.3640   -1.1312   -5.2208 C   0  0  2  0  0  0  0  0  0  0  0  0
   18.8877   -0.8022   -3.9723 O   0  0  0  0  0  0  0  0  0  0  0  0
   17.0495   -1.8507   -4.9946 C   0  0  0  0  0  0  0  0  0  0  0  0
   16.9469   -2.3000   -3.5495 C   0  0  0  0  0  0  0  0  0  0  0  0
   15.8531   -1.5674   -2.8804 C   0  0  0  0  0  0  0  0  0  0  0  0
   15.9170   -1.2107   -1.5399 O   0  0  0  0  0  0  0  0  0  0  0  0
   14.8199   -1.2399   -3.5072 O   0  0  0  0  0  0  0  0  0  0  0  0
  1  2  1  0
  2  3  1  0
  2  4  1  0
  4  5  1  0
  5  6  1  0
  6  7  1  0
  7  8  1  6
  7  9  1  0
  9 10  1  0
 10 11  1  0
 11 12  1  0
 12 13  1  1
 12 14  1  0
 14 15  1  0
 15 16  1  0
 16 17  1  6
 16 18  1  0
 18 19  1  0
 19 20  1  0
 20 21  1  1
 20 22  1  0
 22 23  1  0
 23 24  1  0
 24 25  1  0
 24 26  2  0
M  RAD  2   9   2  14   2
M  END
>  <docking_score>  (2) 
-3.1230000000000002

$$$$

     RDKit          3D

 26 25  0  0  0  0  0  0  0  0999 V2000
   17.9744   -2.6594   -7.3703 C   0  0  0  0  0  0  0  0  0  0  0  0
   18.2259   -1.7290   -6.2174 C   0  0  0  0  0  0  0  0  0  0  0  0
   16.9553   -0.9169   -6.0092 C   0  0  0  0  0  0  0  0  0  0  0  0
   19.3397   -0.7535   -6.4655 C   0  0  0  0  0  0  0  0  0  0  0  0
   19.5044    0.2655   -5.3829 C   0  0  0  0  0  0  0  0  0  0  0  0
   20.8942    0.3105   -4.8044 C   0  0  0  0  0  0  0  0  0  0  0  0
   20.9405   -0.6514   -3.6373 C   0  0  1  0  0  0  0  0  0  0  0  0
   19.6261   -0.6398   -2.9041 C   0  0  0  0  0  0  0  0  0  0  0  0
   21.3823   -2.0184   -4.0556 C   0  0  0  0  0  3  0  0  0  0  0  0
   20.3116   -3.0687   -3.8634 C   0  0  0  0  0  0  0  0  0  0  0  0
   20.7840   -4.1201   -2.8922 C   0  0  0  0  0  0  0  0  0  0  0  0
   19.6213   -4.3448   -1.8768 C   0  0  1  0  0  0  0  0  0  0  0  0
   20.0120   -3.5252   -0.6432 C   0  0  0  0  0  0  0  0  0  0  0  0
   18.3799   -3.8897   -2.5227 C   0  0  0  0  0  3  0  0  0  0  0  0
   17.2104   -4.7287   -2.6482 C   0  0  0  0  0  0  0  0  0  0  0  0
   16.4011   -4.6399   -3.8495 C   0  0  2  0  0  0  0  0  0  0  0  0
   15.5257   -3.4712   -4.0678 C   0  0  0  0  0  0  0  0  0  0  0  0
   15.7764   -5.9518   -4.2867 C   0  0  0  0  0  0  0  0  0  0  0  0
   16.9237   -6.8368   -4.7699 C   0  0  0  0  0  0  0  0  0  0  0  0
   17.2218   -6.5194   -6.2253 C   0  0  2  0  0  0  0  0  0  0  0  0
   16.0316   -6.0873   -6.8067 O   0  0  0  0  0  0  0  0  0  0  0  0
   17.6078   -7.8289   -6.8833 C   0  0  0  0  0  0  0  0  0  0  0  0
   19.0902   -8.0873   -6.6926 C   0  0  0  0  0  0  0  0  0  0  0  0
   19.8675   -7.1257   -7.5000 C   0  0  0  0  0  0  0  0  0  0  0  0
   19.2754   -6.0289   -8.1118 O   0  0  0  0  0  0  0  0  0  0  0  0
   21.1009   -7.2696   -7.6614 O   0  0  0  0  0  0  0  0  0  0  0  0
  1  2  1  0
  2  3  1  0
  2  4  1  0
  4  5  1  0
  5  6  1  0
  6  7  1  0
  7  8  1  6
  7  9  1  0
  9 10  1  0
 10 11  1  0
 11 12  1  0
 12 13  1  1
 12 14  1  0
 14 15  1  0
 15 16  1  0
 16 17  1  1
 16 18  1  0
 18 19  1  0
 19 20  1  0
 20 21  1  6
 20 22  1  0
 22 23  1  0
 23 24  1  0
 24 25  1  0
 24 26  2  0
M  RAD  2   9   2  14   2
M  END
>  <docking_score>  (3) 
-3.044

$$$$
