
     RDKit          3D

 28 28  0  0  0  0  0  0  0  0999 V2000
   18.6081   -8.5466   -4.0124 C   0  0  0  0  0  0  0  0  0  0  0  0
   17.8753   -8.5918   -5.3430 C   0  0  0  0  0  0  0  0  0  0  0  0
   16.9088   -9.7780   -5.3189 C   0  0  0  0  0  0  0  0  0  0  0  0
   17.0983   -7.3066   -5.5442 C   0  0  0  0  0  0  0  0  0  0  0  0
   17.6112   -6.5873   -6.7860 C   0  0  0  0  0  0  0  0  0  0  0  0
   19.1042   -6.3563   -6.6233 C   0  0  0  0  0  0  0  0  0  0  0  0
   19.7616   -6.2433   -7.9898 C   0  0  1  0  0  0  0  0  0  0  0  0
   19.0873   -5.1099   -8.7399 C   0  0  0  0  0  0  0  0  0  0  0  0
   21.2127   -5.8388   -7.7312 C   0  0  0  0  0  3  0  0  0  0  0  0
   21.2588   -4.3434   -7.6567 C   0  0  0  0  0  0  0  0  0  0  0  0
   21.0045   -3.8619   -6.2387 C   0  0  0  0  0  0  0  0  0  0  0  0
   20.3084   -2.5289   -6.2405 C   0  0  1  0  0  0  0  0  0  0  0  0
   21.0438   -1.4491   -6.9213 C   0  0  0  0  0  0  0  0  0  0  0  0
   18.8742   -2.7022   -6.5165 C   0  0  0  0  0  0  0  0  0  0  0  0
   17.9029   -2.0871   -5.6003 C   0  0  2  0  0  0  0  0  0  0  0  0
   16.9883   -1.0576   -6.1341 C   0  0  0  0  0  3  0  0  0  0  0  0
   15.5615   -1.4618   -6.2553 C   0  0  2  0  0  0  0  0  0  0  0  0
   14.6875   -1.1996   -5.0838 C   0  0  0  0  0  0  0  0  0  0  0  0
   15.3685   -2.8025   -6.9002 C   0  0  0  0  0  0  0  0  0  0  0  0
   14.9880   -2.6376   -8.2205 O   0  0  0  0  0  0  0  0  0  0  0  0
   18.3490   -1.8960   -4.1951 C   0  0  0  0  0  0  0  0  0  0  0  0
   17.9481   -3.1544   -3.4138 C   0  0  2  0  0  0  0  0  0  0  0  0
   16.8646   -3.9224   -4.1370 C   0  0  0  0  0  0  0  0  0  0  0  0
   17.5021   -2.7548   -2.0061 C   0  0  0  0  0  3  0  0  0  0  0  0
   18.7281   -2.5127   -1.4003 O   0  0  0  0  0  0  0  0  0  0  0  0
   19.5629   -3.5607   -1.7611 C   0  0  0  0  0  0  0  0  0  0  0  0
   19.1279   -4.0303   -3.1260 C   0  0  1  0  0  0  0  0  0  0  0  0
   18.6184   -5.4542   -2.9661 C   0  0  0  0  0  2  0  0  0  0  0  0
  1  2  1  0
  2  3  1  0
  2  4  1  0
  4  5  1  0
  5  6  1  0
  6  7  1  0
  7  8  1  6
  7  9  1  0
  9 10  1  0
 10 11  1  0
 11 12  1  0
 12 13  1  6
 12 14  1  0
 15 14  1  6
 15 16  1  0
 16 17  1  0
 17 18  1  1
 17 19  1  0
 19 20  1  0
 15 21  1  0
 21 22  1  0
 22 23  1  6
 22 24  1  0
 24 25  1  0
 25 26  1  0
 26 27  1  0
 27 28  1  1
 27 22  1  0
M  RAD  4   9   2  16   2  24   2  28   3
M  END
>  <docking_score>  (1) 
-2.8969999999999998

$$$$

     RDKit          3D

 28 28  0  0  0  0  0  0  0  0999 V2000
   10.5104   13.6658   14.0130 C   0  0  0  0  0  0  0  0  0  0  0  0
   11.3026   13.7318   12.7178 C   0  0  0  0  0  0  0  0  0  0  0  0
   12.4094   12.6767   12.7777 C   0  0  0  0  0  0  0  0  0  0  0  0
   10.3895   13.4450   11.5432 C   0  0  0  0  0  0  0  0  0  0  0  0
    8.9381   13.6485   11.9613 C   0  0  0  0  0  0  0  0  0  0  0  0
    8.3874   14.8496   11.2110 C   0  0  0  0  0  0  0  0  0  0  0  0
    6.8795   14.7203   11.0640 C   0  0  1  0  0  0  0  0  0  0  0  0
    6.2479   15.9938   11.5943 C   0  0  0  0  0  0  0  0  0  0  0  0
    6.6033   14.6480    9.5625 C   0  0  0  0  0  3  0  0  0  0  0  0
    5.7173   13.4643    9.3221 C   0  0  0  0  0  0  0  0  0  0  0  0
    4.5591   13.8288    8.4095 C   0  0  0  0  0  0  0  0  0  0  0  0
    5.0579   14.3705    7.0984 C   0  0  1  0  0  0  0  0  0  0  0  0
    5.1346   15.8399    7.0264 C   0  0  0  0  0  0  0  0  0  0  0  0
    6.1929   13.5703    6.6140 C   0  0  0  0  0  0  0  0  0  0  0  0
    6.2330   13.1957    5.1929 C   0  0  2  0  0  0  0  0  0  0  0  0
    6.7460   14.1822    4.2208 C   0  0  0  0  0  3  0  0  0  0  0  0
    8.1767   14.5595    4.3780 C   0  0  2  0  0  0  0  0  0  0  0  0
    8.5272   15.3853    5.5613 C   0  0  0  0  0  0  0  0  0  0  0  0
    8.8321   14.9816    3.0962 C   0  0  0  0  0  0  0  0  0  0  0  0
    8.3312   14.2341    2.0447 O   0  0  0  0  0  0  0  0  0  0  0  0
    5.1362   12.3158    4.7102 C   0  0  0  0  0  0  0  0  0  0  0  0
    5.6069   11.6792    3.3957 C   0  0  2  0  0  0  0  0  0  0  0  0
    7.0645   11.2838    3.4732 C   0  0  0  0  0  0  0  0  0  0  0  0
    5.3550   12.6535    2.2435 C   0  0  0  0  0  3  0  0  0  0  0  0
    3.9849   12.5068    2.0696 O   0  0  0  0  0  0  0  0  0  0  0  0
    3.7243   11.1443    2.1019 C   0  0  0  0  0  0  0  0  0  0  0  0
    4.7531   10.5128    3.0051 C   0  0  1  0  0  0  0  0  0  0  0  0
    5.5983    9.5899    2.1412 C   0  0  0  0  0  2  0  0  0  0  0  0
  1  2  1  0
  2  3  1  0
  2  4  1  0
  4  5  1  0
  5  6  1  0
  6  7  1  0
  7  8  1  6
  7  9  1  0
  9 10  1  0
 10 11  1  0
 11 12  1  0
 12 13  1  1
 12 14  1  0
 15 14  1  1
 15 16  1  0
 16 17  1  0
 17 18  1  1
 17 19  1  0
 19 20  1  0
 15 21  1  0
 21 22  1  0
 22 23  1  1
 22 24  1  0
 24 25  1  0
 25 26  1  0
 26 27  1  0
 27 28  1  6
 27 22  1  0
M  RAD  4   9   2  16   2  24   2  28   3
M  END
>  <docking_score>  (2) 
-2.21

$$$$

     RDKit          3D

 28 28  0  0  0  0  0  0  0  0999 V2000
    3.4043    9.3499   13.4706 C   0  0  0  0  0  0  0  0  0  0  0  0
    3.8460    8.4028   12.3672 C   0  0  0  0  0  0  0  0  0  0  0  0
    2.6729    8.2070   11.4042 C   0  0  0  0  0  0  0  0  0  0  0  0
    5.0226    8.9982   11.6211 C   0  0  0  0  0  0  0  0  0  0  0  0
    5.0139   10.5142   11.7773 C   0  0  0  0  0  0  0  0  0  0  0  0
    4.6145   11.1304   10.4470 C   0  0  0  0  0  0  0  0  0  0  0  0
    4.4340   12.6318   10.6063 C   0  0  1  0  0  0  0  0  0  0  0  0
    5.8055   13.2768   10.5363 C   0  0  0  0  0  0  0  0  0  0  0  0
    3.6335   13.0952    9.3894 C   0  0  0  0  0  3  0  0  0  0  0  0
    4.6044   13.3356    8.2743 C   0  0  0  0  0  0  0  0  0  0  0  0
    4.3153   12.4222    7.0956 C   0  0  0  0  0  0  0  0  0  0  0  0
    5.3382   12.6069    6.0090 C   0  0  1  0  0  0  0  0  0  0  0  0
    6.1194   13.8526    6.1014 C   0  0  0  0  0  0  0  0  0  0  0  0
    6.0392   11.3408    5.7471 C   0  0  0  0  0  0  0  0  0  0  0  0
    5.3187   10.2718    5.0404 C   0  0  2  0  0  0  0  0  0  0  0  0
    4.6800   10.5911    3.7475 C   0  0  0  0  0  3  0  0  0  0  0  0
    5.4107   11.5623    2.8890 C   0  0  2  0  0  0  0  0  0  0  0  0
    4.6435   12.7358    2.3999 C   0  0  0  0  0  0  0  0  0  0  0  0
    6.2950   10.9139    1.8651 C   0  0  0  0  0  0  0  0  0  0  0  0
    5.7919    9.6686    1.5317 O   0  0  0  0  0  0  0  0  0  0  0  0
    4.6084    9.2799    5.8899 C   0  0  0  0  0  0  0  0  0  0  0  0
    3.5049    8.6496    5.0299 C   0  0  2  0  0  0  0  0  0  0  0  0
    2.5094    9.6916    4.5715 C   0  0  0  0  0  0  0  0  0  0  0  0
    2.8192    7.5360    5.8237 C   0  0  0  0  0  3  0  0  0  0  0  0
    3.7650    6.5236    5.7276 O   0  0  0  0  0  0  0  0  0  0  0  0
    4.1789    6.4915    4.4036 C   0  0  0  0  0  0  0  0  0  0  0  0
    4.0689    7.8955    3.8657 C   0  0  1  0  0  0  0  0  0  0  0  0
    3.0112    7.8728    2.7734 C   0  0  0  0  0  2  0  0  0  0  0  0
  1  2  1  0
  2  3  1  0
  2  4  1  0
  4  5  1  0
  5  6  1  0
  6  7  1  0
  7  8  1  6
  7  9  1  0
  9 10  1  0
 10 11  1  0
 11 12  1  0
 12 13  1  1
 12 14  1  0
 15 14  1  1
 15 16  1  0
 16 17  1  0
 17 18  1  6
 17 19  1  0
 19 20  1  0
 15 21  1  0
 21 22  1  0
 22 23  1  6
 22 24  1  0
 24 25  1  0
 25 26  1  0
 26 27  1  0
 27 28  1  6
 27 22  1  0
M  RAD  4   9   2  16   2  24   2  28   3
M  END
>  <docking_score>  (3) 
-2.0209999999999999

$$$$
