
     RDKit          3D

 31 31  0  0  0  0  0  0  0  0999 V2000
   21.3818   -8.7134   -4.0807 C   0  0  0  0  0  0  0  0  0  0  0  0
   20.6407   -7.6996   -4.9544 C   0  0  0  0  0  0  0  0  0  0  0  0
   21.2598   -6.3405   -4.7454 C   0  0  0  0  0  0  0  0  0  0  0  0
   20.7408   -8.1041   -6.4182 C   0  0  0  0  0  0  0  0  0  0  0  0
   20.3717   -6.9202   -7.2829 C   0  0  0  0  0  0  0  0  0  0  0  0
   19.7262   -7.4422   -8.5387 C   0  0  0  0  0  0  0  0  0  0  0  0
   18.3399   -7.9456   -8.2636 C   0  0  1  0  0  0  0  0  0  0  0  0
   18.3140   -9.4189   -7.9341 C   0  0  0  0  0  0  0  0  0  0  0  0
   17.7010   -7.0995   -7.1960 C   0  0  0  0  0  3  0  0  0  0  0  0
   16.4973   -6.4133   -7.8475 C   0  0  0  0  0  3  0  0  0  0  0  0
   16.5435   -4.9613   -7.3549 C   0  0  0  0  0  0  0  0  0  0  0  0
   17.7072   -4.8469   -6.4174 C   0  0  0  0  0  3  0  0  0  0  0  0
   18.2942   -3.4729   -6.4925 C   0  0  0  0  0  0  0  0  0  0  0  0
   17.2245   -5.1745   -5.0215 C   0  0  0  0  0  3  0  0  0  0  0  0
   16.5633   -3.9811   -4.4106 C   0  0  0  0  0  0  0  0  0  0  0  0
   17.5249   -3.3606   -3.4186 C   0  0  2  0  0  0  0  0  0  0  0  0
   17.4369   -1.9005   -3.4552 N   0  0  0  0  0  0  0  0  0  0  0  0
   18.9482   -3.8126   -3.6537 C   0  0  0  0  0  0  0  0  0  0  0  0
   19.7420   -3.9506   -2.3947 C   0  0  0  0  0  0  0  0  0  0  0  0
   19.9426   -2.6736   -1.6487 C   0  0  2  0  0  0  0  0  0  0  0  0
   18.7970   -2.1077   -1.1528 O   0  0  0  0  0  0  0  0  0  0  0  0
   20.8990   -1.7231   -2.2790 C   0  0  0  0  0  0  0  0  0  0  0  0
   20.2920   -0.4141   -2.6852 C   0  0  0  0  0  0  0  0  0  0  0  0
   20.8683    0.0388   -4.0185 C   0  0  2  0  0  0  0  0  0  0  0  0
   21.2271    1.3738   -3.8710 O   0  0  0  0  0  0  0  0  0  0  0  0
   19.7962   -0.1029   -5.0103 N   0  0  0  0  0  0  0  0  0  0  0  0
   20.2935   -0.6515   -6.2548 C   0  0  0  0  0  0  0  0  0  0  0  0
   20.6828   -2.0974   -6.0222 C   0  0  0  0  0  0  0  0  0  0  0  0
   20.6090   -2.9190   -7.2799 C   0  0  0  0  0  0  0  0  0  0  0  0
   19.1944   -3.2714   -7.6712 C   0  0  2  0  0  0  0  0  0  0  0  0
   18.6704   -2.2449   -8.4373 F   0  0  0  0  0  0  0  0  0  0  0  0
  1  2  1  0
  2  3  1  0
  2  4  1  0
  4  5  1  0
  5  6  1  0
  6  7  1  0
  7  8  1  1
  7  9  1  0
  9 10  1  0
 10 11  1  0
 11 12  1  0
 12 13  1  0
 12 14  1  0
 14 15  1  0
 15 16  1  0
 16 17  1  6
 16 18  1  0
 18 19  1  0
 19 20  1  0
 20 21  1  6
 20 22  1  0
 22 23  1  0
 23 24  1  0
 24 25  1  1
 24 26  1  0
 26 27  1  0
 27 28  1  0
 28 29  1  0
 29 30  1  0
 30 31  1  6
 30 13  1  0
M  RAD  4   9   2  10   2  12   2  14   2
M  END
>  <docking_score>  (1) 
-3.2290000000000001

$$$$

     RDKit          3D

 31 31  0  0  0  0  0  0  0  0999 V2000
   17.9541    6.7140   -3.9926 C   0  0  0  0  0  0  0  0  0  0  0  0
   19.3063    7.2267   -3.4936 C   0  0  0  0  0  0  0  0  0  0  0  0
   19.0921    7.9656   -2.1966 C   0  0  0  0  0  0  0  0  0  0  0  0
   20.2591    6.0588   -3.2828 C   0  0  0  0  0  0  0  0  0  0  0  0
   20.9104    5.7100   -4.6017 C   0  0  0  0  0  0  0  0  0  0  0  0
   20.2318    4.4821   -5.1476 C   0  0  0  0  0  0  0  0  0  0  0  0
   21.0872    3.2641   -4.9594 C   0  0  1  0  0  0  0  0  0  0  0  0
   21.2024    2.8560   -3.5103 C   0  0  0  0  0  0  0  0  0  0  0  0
   20.5794    2.1532   -5.8379 C   0  0  0  0  0  3  0  0  0  0  0  0
   19.1703    1.8167   -5.3424 C   0  0  0  0  0  3  0  0  0  0  0  0
   18.7516    0.5686   -6.1297 C   0  0  0  0  0  0  0  0  0  0  0  0
   18.5180   -0.5272   -5.1344 C   0  0  0  0  0  3  0  0  0  0  0  0
   17.3689   -1.3804   -5.5699 C   0  0  0  0  0  0  0  0  0  0  0  0
   19.7941   -1.3294   -5.0051 C   0  0  0  0  0  3  0  0  0  0  0  0
   19.9004   -2.3142   -6.1247 C   0  0  0  0  0  0  0  0  0  0  0  0
   19.5463   -3.6851   -5.5873 C   0  0  2  0  0  0  0  0  0  0  0  0
   18.7849   -4.4488   -6.5761 N   0  0  0  0  0  0  0  0  0  0  0  0
   18.7875   -3.6012   -4.2825 C   0  0  0  0  0  0  0  0  0  0  0  0
   19.1020   -4.7186   -3.3408 C   0  0  0  0  0  0  0  0  0  0  0  0
   18.7142   -6.0715   -3.8374 C   0  0  2  0  0  0  0  0  0  0  0  0
   19.3915   -6.4946   -4.9513 O   0  0  0  0  0  0  0  0  0  0  0  0
   17.2503   -6.3410   -3.8438 C   0  0  0  0  0  0  0  0  0  0  0  0
   16.6755   -6.5985   -5.2040 C   0  0  0  0  0  0  0  0  0  0  0  0
   15.3099   -5.9391   -5.3285 C   0  0  2  0  0  0  0  0  0  0  0  0
   14.4495   -6.8900   -5.8654 O   0  0  0  0  0  0  0  0  0  0  0  0
   15.4713   -4.8079   -6.2492 N   0  0  0  0  0  0  0  0  0  0  0  0
   14.7498   -3.6403   -5.7870 C   0  0  0  0  0  0  0  0  0  0  0  0
   15.4323   -3.1149   -4.5403 C   0  0  0  0  0  0  0  0  0  0  0  0
   15.2006   -1.6424   -4.3390 C   0  0  0  0  0  0  0  0  0  0  0  0
   16.0312   -0.7838   -5.2617 C   0  0  2  0  0  0  0  0  0  0  0  0
   15.3521   -0.6194   -6.4563 F   0  0  0  0  0  0  0  0  0  0  0  0
  1  2  1  0
  2  3  1  0
  2  4  1  0
  4  5  1  0
  5  6  1  0
  6  7  1  0
  7  8  1  1
  7  9  1  0
  9 10  1  0
 10 11  1  0
 11 12  1  0
 12 13  1  0
 12 14  1  0
 14 15  1  0
 15 16  1  0
 16 17  1  6
 16 18  1  0
 18 19  1  0
 19 20  1  0
 20 21  1  6
 20 22  1  0
 22 23  1  0
 23 24  1  0
 24 25  1  6
 24 26  1  0
 26 27  1  0
 27 28  1  0
 28 29  1  0
 29 30  1  0
 30 31  1  6
 30 13  1  0
M  RAD  4   9   2  10   2  12   2  14   2
M  END
>  <docking_score>  (2) 
-2.9689999999999999

$$$$
