
     RDKit          3D

 29 28  0  0  0  0  0  0  0  0999 V2000
    8.5818   12.9324    3.8897 C   0  0  0  0  0  0  0  0  0  0  0  0
    8.5664   13.6290    2.5450 C   0  0  0  0  0  0  0  0  0  0  0  0
    7.5683   14.7551    2.5124 C   0  0  2  0  0  0  0  0  0  0  0  0
    8.3162   16.0121    2.1063 C   0  0  0  0  0  0  0  0  0  0  0  0
    6.9676   14.8861    3.8594 C   0  0  0  0  0  0  0  0  0  0  0  0
    7.5401   15.5839    4.7489 O   0  0  0  0  0  0  0  0  0  0  0  0
    5.7750   14.2681    4.2129 O   0  0  0  0  0  0  0  0  0  0  0  0
    5.6103   13.8164    5.5441 C   0  0  0  0  0  3  0  0  0  0  0  0
    5.0085   14.9912    6.3110 C   0  0  0  0  0  0  0  0  0  0  0  0
    3.8747   14.4401    7.1364 C   0  0  2  0  0  0  0  0  0  0  0  0
    2.5131   14.7821    6.5760 C   0  0  0  0  0  0  0  0  0  0  0  0
    3.9986   14.7477    8.5634 C   0  0  0  0  0  0  0  0  0  0  0  0
    4.2848   13.8067    9.4351 C   0  0  0  0  0  0  0  0  0  0  0  0
    4.4817   12.4484    8.9912 C   0  0  0  0  0  0  0  0  0  0  0  0
    4.0945   11.4371    9.6990 C   0  0  0  0  0  0  0  0  0  0  0  0
    3.4317   11.5735   10.9939 C   0  0  2  0  0  0  0  0  0  0  0  0
    3.8279   12.8667   11.6491 C   0  0  0  0  0  0  0  0  0  0  0  0
    3.9357   10.4309   11.8757 C   0  0  2  0  0  0  0  0  0  0  0  0
    2.9478    9.4982   12.1104 O   0  0  0  0  0  0  0  0  0  0  0  0
    2.7237    8.7800   10.9386 C   0  0  0  0  0  0  0  0  0  0  0  0
    4.5776   10.9392   13.1441 C   0  0  0  0  0  0  0  0  0  0  0  0
    3.9322   10.4472   14.3967 C   0  0  0  0  0  0  0  0  0  0  0  0
    3.9562   11.4659   15.4762 C   0  0  2  0  0  0  0  0  0  0  0  0
    2.7652   11.4931   16.2064 O   0  0  0  0  0  0  0  0  0  0  0  0
    4.5394   12.7352   15.1660 C   0  0  0  0  0  0  0  0  0  0  0  0
    4.0986   14.0439   15.4019 C   0  0  0  0  0  0  0  0  0  0  0  0
    4.8246   15.2679   15.4992 C   0  0  0  0  0  0  0  0  0  0  0  0
    5.2624   15.8984   14.2878 C   0  0  0  0  0  0  0  0  0  0  0  0
    5.8058   15.4906   13.3201 O   0  0  0  0  0  0  0  0  0  0  0  0
  1  2  1  0
  2  3  1  0
  3  4  1  1
  3  5  1  0
  5  6  2  0
  5  7  1  0
  7  8  1  0
  8  9  1  0
  9 10  1  0
 10 11  1  6
 10 12  1  0
 12 13  2  3
 13 14  1  0
 14 15  2  3
 15 16  1  0
 16 17  1  1
 16 18  1  0
 18 19  1  0
 19 20  1  0
 18 21  1  1
 21 22  1  0
 22 23  1  0
 23 24  1  6
 23 25  1  0
 25 26  1  0
 26 27  1  0
 27 28  1  0
 28 29  2  0
M  RAD  1   8   2
M  END
>  <docking_score>  (1) 
-2.6909999999999998

$$$$

     RDKit          3D

 29 28  0  0  0  0  0  0  0  0999 V2000
   19.7999   -5.8854   -2.6053 C   0  0  0  0  0  0  0  0  0  0  0  0
   19.1705   -6.0863   -3.9680 C   0  0  0  0  0  0  0  0  0  0  0  0
   19.3188   -7.5056   -4.4465 C   0  0  2  0  0  0  0  0  0  0  0  0
   18.9639   -8.4153   -3.2842 C   0  0  0  0  0  0  0  0  0  0  0  0
   20.7170   -7.7050   -4.8911 C   0  0  0  0  0  0  0  0  0  0  0  0
   21.3627   -8.7327   -4.5266 O   0  0  0  0  0  0  0  0  0  0  0  0
   21.3803   -6.8009   -5.7107 O   0  0  0  0  0  0  0  0  0  0  0  0
   20.8190   -6.4853   -6.9712 C   0  0  0  0  0  3  0  0  0  0  0  0
   20.1766   -5.1101   -6.8083 C   0  0  0  0  0  0  0  0  0  0  0  0
   18.9778   -5.0764   -7.7206 C   0  0  2  0  0  0  0  0  0  0  0  0
   18.6524   -6.4248   -8.3213 C   0  0  0  0  0  0  0  0  0  0  0  0
   19.0444   -4.0071   -8.7198 C   0  0  0  0  0  0  0  0  0  0  0  0
   19.0381   -2.7435   -8.3588 C   0  0  0  0  0  0  0  0  0  0  0  0
   18.9650   -2.3933   -6.9614 C   0  0  0  0  0  0  0  0  0  0  0  0
   17.8444   -2.0830   -6.3941 C   0  0  0  0  0  0  0  0  0  0  0  0
   16.5678   -2.0585   -7.1044 C   0  0  2  0  0  0  0  0  0  0  0  0
   15.5190   -1.3797   -6.2689 C   0  0  0  0  0  0  0  0  0  0  0  0
   16.1383   -3.5126   -7.3004 C   0  0  2  0  0  0  0  0  0  0  0  0
   14.7744   -3.6194   -7.4720 O   0  0  0  0  0  0  0  0  0  0  0  0
   14.4683   -4.9348   -7.8112 C   0  0  0  0  0  0  0  0  0  0  0  0
   16.6649   -4.4081   -6.2050 C   0  0  0  0  0  0  0  0  0  0  0  0
   16.1551   -4.0736   -4.8426 C   0  0  0  0  0  0  0  0  0  0  0  0
   15.6071   -5.2624   -4.1425 C   0  0  2  0  0  0  0  0  0  0  0  0
   14.3092   -5.5711   -4.5578 O   0  0  0  0  0  0  0  0  0  0  0  0
   15.8681   -5.3744   -2.7400 C   0  0  0  0  0  0  0  0  0  0  0  0
   16.2542   -4.4230   -1.7870 C   0  0  0  0  0  0  0  0  0  0  0  0
   16.4585   -3.0161   -1.9051 C   0  0  0  0  0  0  0  0  0  0  0  0
   17.7352   -2.5493   -2.3621 C   0  0  0  0  0  0  0  0  0  0  0  0
   18.3260   -2.6882   -3.3768 O   0  0  0  0  0  0  0  0  0  0  0  0
  1  2  1  0
  2  3  1  0
  3  4  1  1
  3  5  1  0
  5  6  2  0
  5  7  1  0
  7  8  1  0
  8  9  1  0
  9 10  1  0
 10 11  1  6
 10 12  1  0
 12 13  2  3
 13 14  1  0
 14 15  2  3
 15 16  1  0
 16 17  1  1
 16 18  1  0
 18 19  1  0
 19 20  1  0
 18 21  1  1
 21 22  1  0
 22 23  1  0
 23 24  1  1
 23 25  1  0
 25 26  1  0
 26 27  1  0
 27 28  1  0
 28 29  2  0
M  RAD  1   8   2
M  END
>  <docking_score>  (2) 
-2.5710000000000002

$$$$

     RDKit          3D

 29 28  0  0  0  0  0  0  0  0999 V2000
   21.1833   -3.5727   -3.9989 C   0  0  0  0  0  0  0  0  0  0  0  0
   21.3825   -2.2373   -4.6849 C   0  0  0  0  0  0  0  0  0  0  0  0
   20.1010   -1.4513   -4.7571 C   0  0  2  0  0  0  0  0  0  0  0  0
   20.1676   -0.5891   -6.0046 C   0  0  0  0  0  0  0  0  0  0  0  0
   19.9863   -0.6311   -3.5297 C   0  0  0  0  0  0  0  0  0  0  0  0
   19.9669    0.6337   -3.6063 O   0  0  0  0  0  0  0  0  0  0  0  0
   19.8958   -1.1878   -2.2604 O   0  0  0  0  0  0  0  0  0  0  0  0
   18.6752   -1.7845   -1.8638 C   0  0  0  0  0  3  0  0  0  0  0  0
   18.9816   -3.2667   -1.6647 C   0  0  0  0  0  0  0  0  0  0  0  0
   17.8975   -4.0367   -2.3734 C   0  0  2  0  0  0  0  0  0  0  0  0
   16.5161   -3.7509   -1.8304 C   0  0  0  0  0  0  0  0  0  0  0  0
   18.1842   -5.4694   -2.4800 C   0  0  0  0  0  0  0  0  0  0  0  0
   18.5838   -5.9959   -3.6158 C   0  0  0  0  0  0  0  0  0  0  0  0
   18.7460   -5.1603   -4.7803 C   0  0  0  0  0  0  0  0  0  0  0  0
   18.2648   -5.4967   -5.9332 C   0  0  0  0  0  0  0  0  0  0  0  0
   17.5236   -6.7352   -6.1603 C   0  0  2  0  0  0  0  0  0  0  0  0
   16.9084   -6.7309   -7.5315 C   0  0  0  0  0  0  0  0  0  0  0  0
   16.3862   -6.7682   -5.1394 C   0  0  2  0  0  0  0  0  0  0  0  0
   15.6365   -7.9197   -5.2529 O   0  0  0  0  0  0  0  0  0  0  0  0
   16.4675   -9.0168   -5.0410 C   0  0  0  0  0  0  0  0  0  0  0  0
   15.5479   -5.5136   -5.1892 C   0  0  0  0  0  0  0  0  0  0  0  0
   15.5241   -4.8458   -6.5239 C   0  0  0  0  0  0  0  0  0  0  0  0
   15.8255   -3.3953   -6.4296 C   0  0  2  0  0  0  0  0  0  0  0  0
   16.7987   -3.1173   -5.4663 O   0  0  0  0  0  0  0  0  0  0  0  0
   14.7183   -2.4910   -6.4923 C   0  0  0  0  0  0  0  0  0  0  0  0
   14.6606   -1.1022   -6.6669 C   0  0  0  0  0  0  0  0  0  0  0  0
   14.6939   -0.0415   -5.7136 C   0  0  0  0  0  0  0  0  0  0  0  0
   13.7531   -0.0682   -4.6316 C   0  0  0  0  0  0  0  0  0  0  0  0
   13.8710    0.0453   -3.4606 O   0  0  0  0  0  0  0  0  0  0  0  0
  1  2  1  0
  2  3  1  0
  3  4  1  6
  3  5  1  0
  5  6  2  0
  5  7  1  0
  7  8  1  0
  8  9  1  0
  9 10  1  0
 10 11  1  1
 10 12  1  0
 12 13  2  3
 13 14  1  0
 14 15  2  3
 15 16  1  0
 16 17  1  6
 16 18  1  0
 18 19  1  0
 19 20  1  0
 18 21  1  6
 21 22  1  0
 22 23  1  0
 23 24  1  1
 23 25  1  0
 25 26  1  0
 26 27  1  0
 27 28  1  0
 28 29  2  0
M  RAD  1   8   2
M  END
>  <docking_score>  (3) 
-2.3730000000000002

$$$$
