
     RDKit          3D

 14 14  0  0  0  0  0  0  0  0999 V2000
   16.5192   -2.2620   -2.0272 O   0  0  0  0  0  0  0  0  0  0  0  0
   16.0795   -2.0982   -3.3478 C   0  0  0  0  0  0  0  0  0  0  0  0
   16.3375   -3.4030   -4.0592 C   0  0  1  0  0  0  0  0  0  0  0  0
   15.7950   -4.5247   -3.3128 N   0  0  0  0  0  0  0  0  0  0  0  0
   16.4781   -5.7031   -3.7612 C   0  0  2  0  0  0  0  0  0  0  0  0
   17.9567   -5.5096   -3.9524 C   0  0  0  0  0  0  0  0  0  0  0  0
   18.5091   -6.7660   -4.2589 O   0  0  0  0  0  0  0  0  0  0  0  0
   15.8139   -6.4360   -4.8563 C   0  0  1  0  0  0  0  0  0  0  0  0
   14.6576   -7.0367   -4.3830 O   0  0  0  0  0  0  0  0  0  0  0  0
   15.6525   -5.7620   -6.1402 C   0  0  2  0  0  0  0  0  0  0  0  0
   16.2918   -6.5402   -7.1265 O   0  0  0  0  0  0  0  0  0  0  0  0
   16.1134   -4.3754   -6.2788 C   0  0  0  0  0  3  0  0  0  0  0  0
   15.5886   -3.3580   -5.3745 C   0  0  1  0  0  0  0  0  0  0  0  0
   14.2250   -3.3486   -5.1754 O   0  0  0  0  0  0  0  0  0  0  0  0
  1  2  1  0
  3  2  1  1
  3  4  1  0
  4  5  1  0
  5  6  1  6
  6  7  1  0
  5  8  1  0
  8  9  1  1
  8 10  1  0
 10 11  1  6
 10 12  1  0
 12 13  1  0
 13 14  1  1
 13  3  1  0
M  RAD  1  12   2
M  END
>  <docking_score>  (1) 
-3.7090000000000001

$$$$

     RDKit          3D

 14 14  0  0  0  0  0  0  0  0999 V2000
   14.6573    0.3679   -5.7381 O   0  0  0  0  0  0  0  0  0  0  0  0
   14.2113   -0.6445   -4.8778 C   0  0  0  0  0  0  0  0  0  0  0  0
   15.3433   -1.6320   -4.7413 C   0  0  1  0  0  0  0  0  0  0  0  0
   15.4195   -2.1607   -3.3907 N   0  0  0  0  0  0  0  0  0  0  0  0
   16.7466   -2.6729   -3.2096 C   0  0  2  0  0  0  0  0  0  0  0  0
   17.8195   -1.7910   -3.7852 C   0  0  0  0  0  0  0  0  0  0  0  0
   18.8552   -1.7150   -2.8369 O   0  0  0  0  0  0  0  0  0  0  0  0
   16.9126   -4.1081   -3.5104 C   0  0  1  0  0  0  0  0  0  0  0  0
   16.2668   -4.8657   -2.5457 O   0  0  0  0  0  0  0  0  0  0  0  0
   16.6774   -4.5588   -4.8779 C   0  0  2  0  0  0  0  0  0  0  0  0
   17.8546   -5.1794   -5.3428 O   0  0  0  0  0  0  0  0  0  0  0  0
   16.2445   -3.5822   -5.8845 C   0  0  0  0  0  3  0  0  0  0  0  0
   15.0328   -2.8056   -5.6465 C   0  0  1  0  0  0  0  0  0  0  0  0
   13.9270   -3.5001   -5.2060 O   0  0  0  0  0  0  0  0  0  0  0  0
  1  2  1  0
  3  2  1  1
  3  4  1  0
  4  5  1  0
  5  6  1  6
  6  7  1  0
  5  8  1  0
  8  9  1  1
  8 10  1  0
 10 11  1  6
 10 12  1  0
 12 13  1  0
 13 14  1  1
 13  3  1  0
M  RAD  1  12   2
M  END
>  <docking_score>  (2) 
-3.6760000000000002

$$$$

     RDKit          3D

 14 14  0  0  0  0  0  0  0  0999 V2000
    9.4024   14.6987    2.1796 O   0  0  0  0  0  0  0  0  0  0  0  0
    9.3163   13.8330    3.2783 C   0  0  0  0  0  0  0  0  0  0  0  0
    7.9784   13.1426    3.1867 C   0  0  1  0  0  0  0  0  0  0  0  0
    7.9892   11.8788    3.9024 N   0  0  0  0  0  0  0  0  0  0  0  0
    6.9149   11.0857    3.3796 C   0  0  2  0  0  0  0  0  0  0  0  0
    6.7823   11.1569    1.8838 C   0  0  0  0  0  0  0  0  0  0  0  0
    6.0412   10.0345    1.4733 O   0  0  0  0  0  0  0  0  0  0  0  0
    5.6373   11.1992    4.1096 C   0  0  1  0  0  0  0  0  0  0  0  0
    5.7531   10.5946    5.3516 O   0  0  0  0  0  0  0  0  0  0  0  0
    4.9713   12.4970    4.1385 C   0  0  2  0  0  0  0  0  0  0  0  0
    3.6832   12.3405    3.5877 O   0  0  0  0  0  0  0  0  0  0  0  0
    5.6151   13.6419    3.4833 C   0  0  0  0  0  3  0  0  0  0  0  0
    6.9644   14.0244    3.8848 C   0  0  1  0  0  0  0  0  0  0  0  0
    7.2116   14.0985    5.2385 O   0  0  0  0  0  0  0  0  0  0  0  0
  1  2  1  0
  3  2  1  1
  3  4  1  0
  4  5  1  0
  5  6  1  6
  6  7  1  0
  5  8  1  0
  8  9  1  1
  8 10  1  0
 10 11  1  6
 10 12  1  0
 12 13  1  0
 13 14  1  1
 13  3  1  0
M  RAD  1  12   2
M  END
>  <docking_score>  (3) 
-3.6429999999999998

$$$$
