
     RDKit          3D

 69 72  0  0  0  0  0  0  0  0999 V2000
   21.2983   -9.4282   -3.3613 C   0  0  0  0  0  0  0  0  0  0  0  0
   20.6767   -8.2057   -3.3530 O   0  0  0  0  0  0  0  0  0  0  0  0
   21.3705   -7.2527   -2.5042 C   0  0  0  0  0  3  0  0  0  0  0  0
   21.2325   -5.9912   -3.1948 O   0  0  0  0  0  0  0  0  0  0  0  0
   21.3495   -6.3377   -4.5415 C   0  0  2  0  0  0  0  0  0  0  0  0
   21.2402   -5.0179   -5.3525 C   0  0  0  0  0  0  0  0  0  0  0  0
   19.9878   -7.1143   -4.9921 C   0  0  0  0  0  3  0  0  0  0  0  0
   19.9180   -6.4517   -6.4553 C   0  0  1  0  0  0  0  0  0  0  0  0
   20.4337   -7.6811   -7.0943 O   0  0  0  0  0  0  0  0  0  0  0  0
   19.6915   -8.7534   -6.6592 C   0  0  0  0  0  2  0  0  0  0  0  0
   18.4489   -6.3943   -6.8391 C   0  0  2  0  0  0  0  0  0  0  0  0
   18.2456   -5.3232   -7.8954 C   0  0  2  0  0  0  0  0  0  0  0  0
   19.6212   -4.1393   -7.9651 S   0  0  0  0  0  0  0  0  0  0  0  0
   18.6571   -3.8708   -6.4405 C   0  0  0  0  0  0  0  0  0  0  0  0
   17.4160   -4.1635   -7.2806 C   0  0  1  0  0  0  0  0  0  0  0  0
   17.3332   -3.1842   -8.2809 O   0  0  0  0  0  0  0  0  0  0  0  0
   18.0347   -2.0829   -7.9494 N   0  0  0  0  0  0  0  0  0  0  0  0
   17.4011   -1.4755   -6.8009 C   0  0  0  0  0  3  0  0  0  0  0  0
   16.0688   -2.2955   -6.2338 S   0  0  1  0  0  0  0  0  0  0  0  0
   15.9455   -2.9469   -4.7524 O   0  0  0  0  0  0  0  0  0  0  0  0
   17.5942   -6.1594   -5.7526 O   0  0  0  0  0  0  0  0  0  0  0  0
   16.6679   -7.2600   -5.7601 C   0  0  2  0  0  0  0  0  0  0  0  0
   16.4170   -7.4236   -7.1252 O   0  0  0  0  0  0  0  0  0  0  0  0
   17.4763   -7.8150   -7.7279 O   0  0  0  0  0  0  0  0  0  0  0  0
   15.5040   -6.9071   -5.0985 O   0  0  0  0  0  0  0  0  0  0  0  0
   15.1702   -5.6805   -5.3383 O   0  0  0  0  0  0  0  0  0  0  0  0
   13.9088   -5.5374   -5.5756 O   0  0  0  0  0  0  0  0  0  0  0  0
   13.4518   -5.9505   -7.1632 S   0  0  0  0  0  0  0  0  0  0  0  0
   11.7428   -6.0279   -7.2665 O   0  0  0  0  0  0  0  0  0  0  0  0
   11.2037   -4.8499   -7.7747 C   0  0  2  0  0  0  0  0  0  0  0  0
   12.2121   -4.1632   -8.4952 O   0  0  0  0  0  0  0  0  0  0  0  0
   13.0159   -3.5385   -7.5497 C   0  0  0  0  0  3  0  0  0  0  0  0
   14.1455   -2.9481   -8.0410 O   0  0  0  0  0  0  0  0  0  0  0  0
   14.5714   -1.5289   -7.0913 S   0  0  2  0  0  0  0  0  0  0  0  0
   14.8433   -0.1893   -7.9983 O   0  0  0  0  0  0  0  0  0  0  0  0
   15.7567    0.6220   -7.4913 O   0  0  0  0  0  0  0  0  0  0  0  0
   15.0972    1.3188   -6.0692 S   0  0  0  0  0  0  0  0  0  0  0  0
   15.9629    0.8163   -4.6810 O   0  0  0  0  0  0  0  0  0  0  0  0
   15.9880   -0.4172   -4.1310 C   0  0  0  0  0  0  0  0  0  0  0  0
   16.9018   -0.7479   -3.3473 O   0  0  0  0  0  0  0  0  0  0  0  0
   10.6765   -3.9983   -6.6724 C   0  0  2  0  0  0  0  0  0  0  0  0
   11.0867   -4.5783   -5.4538 O   0  0  0  0  0  0  0  0  0  0  0  0
   10.3417   -3.8395   -4.0969 S   0  0  0  0  0  0  0  0  0  0  0  0
    9.9227   -2.2204   -4.3337 O   0  0  0  0  0  0  0  0  0  0  0  0
   10.7330   -1.3176   -3.8736 O   0  0  0  0  0  0  0  0  0  0  0  0
   12.0559   -1.7343   -3.7350 C   0  0  0  0  0  3  0  0  0  0  0  0
   12.9265   -0.6923   -3.6162 O   0  0  0  0  0  0  0  0  0  0  0  0
   13.9651   -0.6765   -4.4521 O   0  0  0  0  0  0  0  0  0  0  0  0
   13.0600   -1.3951   -5.9809 S   0  0  2  0  0  0  0  0  0  0  0  0
   12.8751   -3.1156   -5.2361 O   0  0  0  0  0  0  0  0  0  0  0  0
   11.7866   -0.6023   -6.3416 O   0  0  0  0  0  0  0  0  0  0  0  0
   11.6626    0.5011   -5.6048 O   0  0  0  0  0  0  0  0  0  0  0  0
    9.2418   -3.7299   -6.6275 C   0  0  2  0  0  0  0  0  0  0  0  0
    8.2754   -4.6806   -7.3473 C   0  0  2  0  0  0  0  0  0  0  0  0
    9.0645   -5.7383   -7.9847 O   0  0  0  0  0  0  0  0  0  0  0  0
    8.6129   -7.1781   -7.1319 S   0  0  0  0  0  0  0  0  0  0  0  0
    7.8338   -8.3219   -8.0378 O   0  0  0  0  0  0  0  0  0  0  0  0
    6.8191   -7.9531   -8.7377 O   0  0  0  0  0  0  0  0  0  0  0  0
    5.9830   -7.1754   -7.8912 C   0  0  0  0  0  3  0  0  0  0  0  0
    4.6378   -7.3584   -8.1930 O   0  0  0  0  0  0  0  0  0  0  0  0
    4.3723   -8.5899   -8.5968 O   0  0  0  0  0  0  0  0  0  0  0  0
    3.0637   -8.6788   -8.7351 O   0  0  0  0  0  0  0  0  0  0  0  0
    2.6465   -9.9193   -8.5429 O   0  0  0  0  0  0  0  0  0  0  0  0
    3.7115  -10.7930   -8.7344 C   0  0  0  0  0  3  0  0  0  0  0  0
    4.2301  -11.2785   -7.5393 O   0  0  0  0  0  0  0  0  0  0  0  0
    3.3163  -11.3063   -6.5911 O   0  0  0  0  0  0  0  0  0  0  0  0
    3.5895  -12.2146   -5.6742 O   0  0  0  0  0  0  0  0  0  0  0  0
    8.3991   -3.1666   -8.0643 S   0  0  0  0  0  0  0  0  0  0  0  0
    7.4630   -1.9988   -7.7569 O   0  0  0  0  0  0  0  0  0  0  0  0
  1  2  1  0
  2  3  1  0
  3  4  1  0
  4  5  1  0
  5  6  1  6
  5  7  1  0
  8  7  1  1
  8  9  1  0
  9 10  1  0
  8 11  1  0
 11 12  1  0
 12 13  1  1
 13 14  1  0
 15 14  1  1
 15 16  1  0
 16 17  1  0
 17 18  1  0
 18 19  1  0
 19 20  1  1
 11 21  1  1
 21 22  1  0
 22 23  1  6
 23 24  1  0
 22 25  1  0
 25 26  1  0
 26 27  1  0
 27 28  1  0
 28 29  1  0
 30 29  1  1
 30 31  1  0
 31 32  1  0
 32 33  1  0
 33 34  1  0
 34 35  1  6
 35 36  1  0
 36 37  1  0
 37 38  1  0
 38 39  1  0
 39 40  2  0
 30 41  1  0
 41 42  1  1
 42 43  1  0
 43 44  1  0
 44 45  1  0
 45 46  1  0
 46 47  1  0
 47 48  1  0
 48 49  1  0
 49 50  1  1
 49 51  1  0
 51 52  1  0
 53 41  1  6
 53 54  1  0
 54 55  1  6
 55 56  1  0
 56 57  1  0
 57 58  1  0
 58 59  1  0
 59 60  1  0
 60 61  1  0
 61 62  1  0
 62 63  1  0
 63 64  1  0
 64 65  1  0
 65 66  1  0
 66 67  1  0
 68 54  1  1
 68 69  2  0
 15 12  1  0
 34 19  1  0
 49 34  1  0
 53 68  1  0
M  RAD  8   3   2   7   2  10   3  18   2  32   2  46   2  59   2  64   2
M  END
>  <docking_score>  (1) 
49.081000000000003

$$$$
