
     RDKit          3D

 34 36  0  0  0  0  0  0  0  0999 V2000
   20.7669   -8.8992   -8.7399 C   0  0  0  0  0  0  0  0  0  0  0  0
   19.4993   -9.1869   -8.2304 O   0  0  0  0  0  0  0  0  0  0  0  0
   18.4896   -8.2749   -8.0921 C   0  0  0  0  0  0  0  0  0  0  0  0
   17.6935   -8.2013   -7.0384 C   0  0  0  0  0  0  0  0  0  0  0  0
   16.6453   -7.2201   -6.9467 C   0  0  0  0  0  0  0  0  0  0  0  0
   16.5628   -6.4478   -5.8850 C   0  0  0  0  0  0  0  0  0  0  0  0
   17.4846   -6.5557   -4.8216 C   0  0  1  0  0  0  0  0  0  0  0  0
   18.8388   -7.1043   -4.9743 C   0  0  0  0  0  0  0  0  0  0  0  0
   19.6574   -5.8635   -4.4918 C   0  0  1  0  0  0  0  0  0  0  0  0
   19.2006   -4.7921   -5.4442 C   0  0  0  0  0  0  0  0  0  0  0  0
   17.9097   -4.8513   -5.8296 C   0  0  0  0  0  0  0  0  0  0  0  0
   17.2581   -4.0273   -6.6757 C   0  0  0  0  0  0  0  0  0  0  0  0
   17.9790   -3.0013   -7.2162 C   0  0  0  0  0  0  0  0  0  0  0  0
   17.3286   -2.1147   -8.1086 O   0  0  0  0  0  0  0  0  0  0  0  0
   19.3161   -2.8514   -6.8834 C   0  0  0  0  0  0  0  0  0  0  0  0
   19.9007   -3.7672   -5.9909 C   0  0  0  0  0  0  0  0  0  0  0  0
   18.8722   -5.6252   -3.2915 O   0  0  0  0  0  0  0  0  0  0  0  0
   17.5134   -5.7500   -3.6597 C   0  0  0  0  0  0  0  0  0  0  0  0
   16.5590   -5.1545   -2.9362 C   0  0  0  0  0  0  0  0  0  0  0  0
   16.8123   -4.3474   -1.7416 C   0  0  0  0  0  0  0  0  0  0  0  0
   16.1112   -3.0085   -1.8703 C   0  0  0  0  0  0  0  0  0  0  0  0
   17.0724   -1.8691   -2.0185 C   0  0  0  0  0  0  0  0  0  0  0  0
   18.1834   -2.2355   -2.9859 C   0  0  0  0  0  0  0  0  0  0  0  0
   15.4576   -5.4581   -5.8634 C   0  0  0  0  0  0  0  0  0  0  0  0
   15.8039   -4.3619   -6.9289 C   0  0  1  0  0  0  0  0  0  0  0  0
   15.0313   -3.2288   -6.5548 N   0  0  0  0  0  0  0  0  0  0  0  0
   15.2743   -2.0335   -7.2748 C   0  0  1  0  0  0  0  0  0  0  0  0
   14.6023   -2.0888   -8.6301 C   0  0  0  0  0  0  0  0  0  0  0  0
   14.9091   -0.7738   -6.5965 C   0  0  0  0  0  3  0  0  0  0  0  0
   15.6117   -0.4930   -5.3112 C   0  0  0  0  0  3  0  0  0  0  0  0
   14.5862   -0.5744   -4.2071 C   0  0  0  0  0  0  0  0  0  0  0  0
   13.4008    0.0340   -4.3325 C   0  0  0  0  0  0  0  0  0  0  0  0
   15.5557   -4.9320   -8.1786 N   0  0  0  0  0  0  0  0  0  0  0  0
   14.4864   -5.4314   -8.6209 C   0  0  0  0  0  0  0  0  0  0  0  0
  1  2  1  0
  2  3  1  0
  3  4  2  3
  4  5  1  0
  5  6  2  3
  6  7  1  0
  7  8  1  6
  8  9  1  0
  9 10  1  0
 10 11  2  0
 11 12  1  0
 12 13  2  0
 13 14  1  0
 13 15  1  0
 15 16  2  0
  9 17  1  1
 17 18  1  0
 18 19  2  3
 19 20  1  0
 20 21  1  0
 21 22  1  0
 22 23  1  0
  6 24  1  0
 24 25  1  0
 25 26  1  1
 26 27  1  0
 27 28  1  6
 27 29  1  0
 29 30  1  0
 30 31  1  0
 31 32  2  0
 25 33  1  0
 33 34  2  0
 18  7  1  0
 16 10  1  0
 25 12  1  0
M  RAD  2  29   2  30   2
M  END
>  <docking_score>  (1) 
-4.0179999999999998

$$$$

     RDKit          3D

 34 36  0  0  0  0  0  0  0  0999 V2000
   13.0897    0.3003   -6.2052 C   0  0  0  0  0  0  0  0  0  0  0  0
   14.2770    0.6882   -5.5817 O   0  0  0  0  0  0  0  0  0  0  0  0
   15.1997   -0.1743   -5.0570 C   0  0  0  0  0  0  0  0  0  0  0  0
   15.1794   -1.4844   -5.2373 C   0  0  0  0  0  0  0  0  0  0  0  0
   16.1773   -2.3451   -4.6599 C   0  0  0  0  0  0  0  0  0  0  0  0
   16.5846   -3.4086   -5.3184 C   0  0  0  0  0  0  0  0  0  0  0  0
   16.0644   -3.7323   -6.5899 C   0  0  1  0  0  0  0  0  0  0  0  0
   15.4657   -2.7440   -7.4971 C   0  0  0  0  0  0  0  0  0  0  0  0
   16.4114   -2.9405   -8.7257 C   0  0  1  0  0  0  0  0  0  0  0  0
   17.7643   -2.6514   -8.1341 C   0  0  0  0  0  0  0  0  0  0  0  0
   17.9500   -3.0432   -6.8572 C   0  0  0  0  0  0  0  0  0  0  0  0
   19.0542   -2.8957   -6.0966 C   0  0  0  0  0  0  0  0  0  0  0  0
   20.1248   -2.2768   -6.6756 C   0  0  0  0  0  0  0  0  0  0  0  0
   21.3023   -2.1044   -5.9083 O   0  0  0  0  0  0  0  0  0  0  0  0
   20.0369   -1.8361   -7.9868 C   0  0  0  0  0  0  0  0  0  0  0  0
   18.8377   -2.0389   -8.6926 C   0  0  0  0  0  0  0  0  0  0  0  0
   16.3368   -4.3925   -8.7400 O   0  0  0  0  0  0  0  0  0  0  0  0
   16.4615   -4.8219   -7.3992 C   0  0  0  0  0  0  0  0  0  0  0  0
   16.8890   -6.0586   -7.1220 C   0  0  0  0  0  0  0  0  0  0  0  0
   17.2561   -7.0506   -8.1339 C   0  0  0  0  0  0  0  0  0  0  0  0
   17.9044   -8.2479   -7.4653 C   0  0  0  0  0  0  0  0  0  0  0  0
   19.3397   -8.0018   -7.1139 C   0  0  0  0  0  0  0  0  0  0  0  0
   20.0662   -7.3518   -8.2776 C   0  0  0  0  0  0  0  0  0  0  0  0
   17.6178   -4.2462   -4.6607 C   0  0  0  0  0  0  0  0  0  0  0  0
   18.9536   -3.4265   -4.6828 C   0  0  1  0  0  0  0  0  0  0  0  0
   19.9812   -4.3940   -4.5135 N   0  0  0  0  0  0  0  0  0  0  0  0
   20.1221   -4.9447   -3.2162 C   0  0  1  0  0  0  0  0  0  0  0  0
   21.3824   -4.4258   -2.5574 C   0  0  0  0  0  0  0  0  0  0  0  0
   18.9787   -4.7642   -2.2995 C   0  0  0  0  0  3  0  0  0  0  0  0
   17.8455   -5.7193   -2.4679 C   0  0  0  0  0  3  0  0  0  0  0  0
   16.6555   -5.1433   -1.7402 C   0  0  0  0  0  0  0  0  0  0  0  0
   16.6165   -3.8445   -1.4199 C   0  0  0  0  0  0  0  0  0  0  0  0
   18.8273   -2.4371   -3.7063 N   0  0  0  0  0  0  0  0  0  0  0  0
   18.9618   -1.1895   -3.8235 C   0  0  0  0  0  0  0  0  0  0  0  0
  1  2  1  0
  2  3  1  0
  3  4  2  3
  4  5  1  0
  5  6  2  3
  6  7  1  0
  7  8  1  6
  8  9  1  0
  9 10  1  0
 10 11  2  0
 11 12  1  0
 12 13  2  0
 13 14  1  0
 13 15  1  0
 15 16  2  0
  9 17  1  1
 17 18  1  0
 18 19  2  3
 19 20  1  0
 20 21  1  0
 21 22  1  0
 22 23  1  0
  6 24  1  0
 24 25  1  0
 25 26  1  1
 26 27  1  0
 27 28  1  1
 27 29  1  0
 29 30  1  0
 30 31  1  0
 31 32  2  0
 25 33  1  0
 33 34  2  0
 18  7  1  0
 16 10  1  0
 25 12  1  0
M  RAD  2  29   2  30   2
M  END
>  <docking_score>  (2) 
-3.133

$$$$

     RDKit          3D

 34 36  0  0  0  0  0  0  0  0999 V2000
   10.7723   15.2550    4.1060 C   0  0  0  0  0  0  0  0  0  0  0  0
    9.8180   14.7015    3.2505 O   0  0  0  0  0  0  0  0  0  0  0  0
    9.1552   13.5271    3.4780 C   0  0  0  0  0  0  0  0  0  0  0  0
    7.8506   13.4358    3.6756 C   0  0  0  0  0  0  0  0  0  0  0  0
    7.2056   12.1716    3.9113 C   0  0  0  0  0  0  0  0  0  0  0  0
    6.3886   12.0342    4.9330 C   0  0  0  0  0  0  0  0  0  0  0  0
    6.1238   13.1044    5.8142 C   0  0  1  0  0  0  0  0  0  0  0  0
    6.2751   14.5177    5.4427 C   0  0  0  0  0  0  0  0  0  0  0  0
    4.8111   14.9952    5.7095 C   0  0  1  0  0  0  0  0  0  0  0  0
    4.0137   14.0927    4.8076 C   0  0  0  0  0  0  0  0  0  0  0  0
    4.4766   12.8339    4.6674 C   0  0  0  0  0  0  0  0  0  0  0  0
    3.9602   11.8391    3.9170 C   0  0  0  0  0  0  0  0  0  0  0  0
    2.8293   12.1244    3.2068 C   0  0  0  0  0  0  0  0  0  0  0  0
    2.2575   11.1047    2.4079 O   0  0  0  0  0  0  0  0  0  0  0  0
    2.2719   13.3912    3.2828 C   0  0  0  0  0  0  0  0  0  0  0  0
    2.8904   14.3578    4.0953 C   0  0  0  0  0  0  0  0  0  0  0  0
    4.6902   14.3782    7.0205 O   0  0  0  0  0  0  0  0  0  0  0  0
    5.2333   13.0779    6.9126 C   0  0  0  0  0  0  0  0  0  0  0  0
    4.8671   12.1185    7.7696 C   0  0  0  0  0  0  0  0  0  0  0  0
    3.9080   12.3080    8.8590 C   0  0  0  0  0  0  0  0  0  0  0  0
    4.6132   12.8999   10.0646 C   0  0  0  0  0  0  0  0  0  0  0  0
    3.7137   13.7734   10.8842 C   0  0  0  0  0  0  0  0  0  0  0  0
    4.2088   15.2084   10.8667 C   0  0  0  0  0  0  0  0  0  0  0  0
    5.7585   10.7025    5.1099 C   0  0  0  0  0  0  0  0  0  0  0  0
    4.7193   10.5301    3.9492 C   0  0  1  0  0  0  0  0  0  0  0  0
    3.8229    9.5252    4.4049 N   0  0  0  0  0  0  0  0  0  0  0  0
    3.6558    8.3992    3.5621 C   0  0  1  0  0  0  0  0  0  0  0  0
    4.9594    8.0601    2.8711 C   0  0  0  0  0  0  0  0  0  0  0  0
    3.1040    7.1838    4.1934 C   0  0  0  0  0  3  0  0  0  0  0  0
    3.8599    6.6512    5.3636 C   0  0  0  0  0  3  0  0  0  0  0  0
    2.8600    6.3667    6.4575 C   0  0  0  0  0  0  0  0  0  0  0  0
    2.2588    5.1737    6.5372 C   0  0  0  0  0  0  0  0  0  0  0  0
    5.4564   10.2659    2.7937 N   0  0  0  0  0  0  0  0  0  0  0  0
    6.6433   10.5914    2.5220 C   0  0  0  0  0  0  0  0  0  0  0  0
  1  2  1  0
  2  3  1  0
  3  4  2  3
  4  5  1  0
  5  6  2  3
  6  7  1  0
  7  8  1  6
  8  9  1  0
  9 10  1  0
 10 11  2  0
 11 12  1  0
 12 13  2  0
 13 14  1  0
 13 15  1  0
 15 16  2  0
  9 17  1  1
 17 18  1  0
 18 19  2  3
 19 20  1  0
 20 21  1  0
 21 22  1  0
 22 23  1  0
  6 24  1  0
 24 25  1  0
 25 26  1  1
 26 27  1  0
 27 28  1  1
 27 29  1  0
 29 30  1  0
 30 31  1  0
 31 32  2  0
 25 33  1  0
 33 34  2  0
 18  7  1  0
 16 10  1  0
 25 12  1  0
M  RAD  2  29   2  30   2
M  END
>  <docking_score>  (3) 
-2.2320000000000002

$$$$
