
     RDKit          3D

 35 35  0  0  0  0  0  0  0  0999 V2000
   13.2660    1.0293   -3.9677 O   0  0  0  0  0  0  0  0  0  0  0  0
   12.4487   -0.0981   -4.3070 C   0  0  0  0  0  0  0  0  0  0  0  0
   11.3048   -0.0440   -3.3303 C   0  0  0  0  0  0  0  0  0  0  0  0
   10.3827   -1.0467   -4.0506 C   0  0  0  0  0  0  0  0  0  0  0  0
    9.1791   -0.4231   -4.3281 C   0  0  0  0  0  0  0  0  0  0  0  0
    8.6033    0.7282   -4.1678 C   0  0  0  0  0  0  0  0  0  0  0  0
    7.5148    1.3336   -4.6569 C   0  0  0  0  0  0  0  0  0  0  0  0
    6.8133    0.4704   -5.5838 C   0  0  0  0  0  0  0  0  0  0  0  0
    5.7011    1.0675   -6.1218 F   0  0  0  0  0  0  0  0  0  0  0  0
    7.2849   -0.6668   -5.8276 C   0  0  0  0  0  0  0  0  0  0  0  0
    8.3726   -1.3135   -5.3752 C   0  0  0  0  0  0  0  0  0  0  0  0
   12.9187   -0.7639   -5.3154 N   0  0  0  0  0  0  0  0  0  0  0  0
   13.9224   -0.6883   -6.1356 C   0  0  0  0  0  0  0  0  0  0  0  0
   15.3370   -0.9841   -6.0860 C   0  0  0  0  0  0  0  0  0  0  0  0
   15.3742   -2.6149   -5.7903 N   0  0  0  0  0  0  0  0  0  0  0  0
   16.9242   -2.7033   -5.6769 C   0  0  0  0  0  0  0  0  0  0  0  0
   17.3706   -2.5597   -4.3053 C   0  0  0  0  0  0  0  0  0  0  0  0
   18.6149   -3.6017   -4.0258 C   0  0  0  0  0  0  0  0  0  0  0  0
   19.7427   -2.5941   -4.0623 C   0  0  0  0  0  0  0  0  0  0  0  0
   19.8735   -1.5218   -4.8179 C   0  0  0  0  0  0  0  0  0  0  0  0
   20.2980   -0.2771   -4.4408 C   0  0  0  0  0  0  0  0  0  0  0  0
   20.5103   -0.1891   -3.0148 C   0  0  0  0  0  0  0  0  0  0  0  0
   20.7059   -0.1183   -1.6066 C   0  0  0  0  0  0  0  0  0  0  0  0
   20.8929   -0.0448   -0.3867 F   0  0  0  0  0  0  0  0  0  0  0  0
   20.7931   -2.8368   -3.0894 C   0  0  0  0  0  0  0  0  0  0  0  0
   20.8765   -4.1160   -2.1922 C   0  0  0  0  0  3  0  0  0  0  0  0
   19.5706   -3.8353   -1.5338 C   0  0  0  0  0  0  0  0  0  0  0  0
   18.2858   -3.5488   -0.8581 N   0  0  0  0  0  0  0  0  0  0  0  0
   15.1013   -3.0809   -7.1832 C   0  0  0  0  0  0  0  0  0  0  0  0
   14.0001   -4.2957   -6.9715 C   0  0  0  0  0  0  0  0  0  0  0  0
   14.7415   -5.3684   -7.3944 N   0  0  0  0  0  0  0  0  0  0  0  0
   15.9065   -5.5099   -6.7908 N   0  0  0  0  0  0  0  0  0  0  0  0
   16.6135   -6.6759   -6.5240 C   0  0  0  0  0  0  0  0  0  0  0  0
   16.0101   -7.5526   -5.6688 C   0  0  0  0  0  0  0  0  0  0  0  0
   14.7500   -7.1963   -5.1757 F   0  0  0  0  0  0  0  0  0  0  0  0
  1  2  2  0
  2  3  1  0
  3  4  1  0
  4  5  1  0
  5  6  2  0
  6  7  1  0
  7  8  2  0
  8  9  1  0
  8 10  1  0
 10 11  2  0
  2 12  1  0
 12 13  1  0
 13 14  1  0
 14 15  1  0
 15 16  1  0
 16 17  1  0
 17 18  1  0
 18 19  1  0
 19 20  1  0
 20 21  2  3
 21 22  1  0
 22 23  3  0
 23 24  1  0
 19 25  2  3
 25 26  1  0
 26 27  1  0
 27 28  3  0
 15 29  1  0
 29 30  1  0
 30 31  1  0
 31 32  1  0
 32 33  1  0
 33 34  2  3
 34 35  1  0
 11  5  1  0
M  RAD  1  26   2
M  END
>  <docking_score>  (1) 
3.9550000000000001

$$$$

     RDKit          3D

 35 35  0  0  0  0  0  0  0  0999 V2000
   16.0363    3.3740   -4.7591 O   0  0  0  0  0  0  0  0  0  0  0  0
   16.9631    3.1526   -5.8298 C   0  0  0  0  0  0  0  0  0  0  0  0
   17.6536    4.4775   -6.0127 C   0  0  0  0  0  0  0  0  0  0  0  0
   16.7650    5.2967   -5.0567 C   0  0  0  0  0  0  0  0  0  0  0  0
   17.5692    5.8816   -4.0946 C   0  0  0  0  0  0  0  0  0  0  0  0
   18.6748    5.6493   -3.4571 C   0  0  0  0  0  0  0  0  0  0  0  0
   19.5126    6.3633   -2.6964 C   0  0  0  0  0  0  0  0  0  0  0  0
   19.0475    7.7267   -2.5512 C   0  0  0  0  0  0  0  0  0  0  0  0
   19.8947    8.4949   -1.7928 F   0  0  0  0  0  0  0  0  0  0  0  0
   17.9915    8.0717   -3.1350 C   0  0  0  0  0  0  0  0  0  0  0  0
   17.1256    7.4016   -3.9141 C   0  0  0  0  0  0  0  0  0  0  0  0
   16.9315    1.9323   -6.2665 N   0  0  0  0  0  0  0  0  0  0  0  0
   16.3072    0.8273   -5.9926 C   0  0  0  0  0  0  0  0  0  0  0  0
   15.7596    0.2021   -4.8093 C   0  0  0  0  0  0  0  0  0  0  0  0
   16.7381   -1.1178   -4.5894 N   0  0  0  0  0  0  0  0  0  0  0  0
   16.9501   -1.3918   -6.1070 C   0  0  0  0  0  0  0  0  0  0  0  0
   17.6859   -2.6202   -6.3325 C   0  0  0  0  0  0  0  0  0  0  0  0
   19.1467   -2.5261   -5.5778 C   0  0  0  0  0  0  0  0  0  0  0  0
   18.9973   -3.7369   -4.6832 C   0  0  0  0  0  0  0  0  0  0  0  0
   18.9981   -3.8011   -3.3664 C   0  0  0  0  0  0  0  0  0  0  0  0
   19.0568   -4.9202   -2.5817 C   0  0  0  0  0  0  0  0  0  0  0  0
   19.0084   -6.1319   -3.3663 C   0  0  0  0  0  0  0  0  0  0  0  0
   18.9509   -7.3155   -4.1551 C   0  0  0  0  0  0  0  0  0  0  0  0
   18.9151   -8.3525   -4.8272 F   0  0  0  0  0  0  0  0  0  0  0  0
   18.7778   -4.9832   -5.3954 C   0  0  0  0  0  0  0  0  0  0  0  0
   18.8638   -5.1291   -6.9509 C   0  0  0  0  0  3  0  0  0  0  0  0
   20.1019   -5.9539   -6.8841 C   0  0  0  0  0  0  0  0  0  0  0  0
   21.3459   -6.7529   -6.8257 N   0  0  0  0  0  0  0  0  0  0  0  0
   15.6769   -2.0966   -4.2052 C   0  0  0  0  0  0  0  0  0  0  0  0
   15.1633   -2.6942   -5.6586 C   0  0  0  0  0  0  0  0  0  0  0  0
   13.9840   -3.2785   -5.2750 N   0  0  0  0  0  0  0  0  0  0  0  0
   13.8524   -4.5440   -5.6254 N   0  0  0  0  0  0  0  0  0  0  0  0
   14.8386   -5.5074   -5.7976 C   0  0  0  0  0  0  0  0  0  0  0  0
   14.7453   -6.6026   -4.9878 C   0  0  0  0  0  0  0  0  0  0  0  0
   13.6670   -6.6462   -4.0970 F   0  0  0  0  0  0  0  0  0  0  0  0
  1  2  2  0
  2  3  1  0
  3  4  1  0
  4  5  1  0
  5  6  2  0
  6  7  1  0
  7  8  2  0
  8  9  1  0
  8 10  1  0
 10 11  2  0
  2 12  1  0
 12 13  1  0
 13 14  1  0
 14 15  1  0
 15 16  1  0
 16 17  1  0
 17 18  1  0
 18 19  1  0
 19 20  1  0
 20 21  2  3
 21 22  1  0
 22 23  3  0
 23 24  1  0
 19 25  2  3
 25 26  1  0
 26 27  1  0
 27 28  3  0
 15 29  1  0
 29 30  1  0
 30 31  1  0
 31 32  1  0
 32 33  1  0
 33 34  2  3
 34 35  1  0
 11  5  1  0
M  RAD  1  26   2
M  END
>  <docking_score>  (2) 
5.2999999999999998

$$$$
