
     RDKit          3D

 29 29  0  0  0  0  0  0  0  0999 V2000
    4.6769    8.4785   10.4378 C   0  0  0  0  0  0  0  0  0  0  0  0
    4.2266    9.2655   11.6448 C   0  0  2  0  0  0  0  0  0  0  0  0
    3.2723    8.4963   12.5162 C   0  0  0  0  0  0  0  0  0  0  0  0
    3.7219   10.6372   11.2833 C   0  0  0  0  0  0  0  0  0  0  0  0
    4.6399   11.6485   11.9156 C   0  0  0  0  0  0  0  0  0  0  0  0
    5.4961   12.2379   10.8149 C   0  0  0  0  0  0  0  0  0  0  0  0
    5.5232   13.7490   11.0103 C   0  0  1  0  0  0  0  0  0  0  0  0
    5.8904   13.9915   12.4562 C   0  0  0  0  0  0  0  0  0  0  0  0
    6.5915   14.3272   10.1021 C   0  0  0  0  0  3  0  0  0  0  0  0
    6.0427   14.2992    8.6905 C   0  0  0  0  0  0  0  0  0  0  0  0
    6.6152   15.4325    7.8858 C   0  0  0  0  0  0  0  0  0  0  0  0
    6.9243   14.9864    6.4812 C   0  0  2  0  0  0  0  0  0  0  0  0
    6.4272   16.0161    5.4909 C   0  0  0  0  0  0  0  0  0  0  0  0
    6.3734   13.6179    6.1678 C   0  0  0  0  0  3  0  0  0  0  0  0
    5.1008   13.6733    5.3629 C   0  0  0  0  0  0  0  0  0  0  0  0
    5.2645   13.1891    3.9549 C   0  0  1  0  0  0  0  0  0  0  0  0
    6.6917   13.0594    3.5231 C   0  0  0  0  0  2  0  0  0  0  0  0
    4.4149   12.0100    3.6152 C   0  0  1  0  0  0  0  0  0  0  0  0
    4.7871   11.4936    2.2566 C   0  0  0  0  0  0  0  0  0  0  0  0
    4.4060   10.9393    4.6674 C   0  0  0  0  0  0  0  0  0  0  0  0
    4.9594    9.6550    4.1072 C   0  0  0  0  0  3  0  0  0  0  0  0
    6.2521    9.9125    3.6526 O   0  0  0  0  0  0  0  0  0  0  0  0
    5.0148    8.6189    5.2216 C   0  0  0  0  0  0  0  0  0  0  0  0
    3.8353    7.6748    5.1345 C   0  0  0  0  0  0  0  0  0  0  0  0
    3.7094    6.9551    6.4514 C   0  0  2  0  0  0  0  0  0  0  0  0
    3.0484    5.6191    6.2232 C   0  0  0  0  0  0  0  0  0  0  0  0
    2.9071    7.8308    7.3880 C   0  0  0  0  0  0  0  0  0  0  0  0
    3.2914    7.6850    8.7130 O   0  0  0  0  0  0  0  0  0  0  0  0
    3.8740    8.8634    9.2011 C   0  0  0  0  0  3  0  0  0  0  0  0
  1  2  1  0
  2  3  1  6
  2  4  1  0
  4  5  1  0
  5  6  1  0
  6  7  1  0
  7  8  1  1
  7  9  1  0
  9 10  1  0
 10 11  1  0
 11 12  1  0
 12 13  1  6
 12 14  1  0
 14 15  1  0
 15 16  1  0
 16 17  1  1
 16 18  1  0
 18 19  1  6
 18 20  1  0
 20 21  1  0
 21 22  1  0
 21 23  1  0
 23 24  1  0
 24 25  1  0
 25 26  1  6
 25 27  1  0
 27 28  1  0
 28 29  1  0
 29  1  1  0
M  RAD  5   9   2  14   2  17   3  21   2  29   2
M  END
>  <docking_score>  (1) 
-5.5309999999999997

$$$$

     RDKit          3D

 29 29  0  0  0  0  0  0  0  0999 V2000
    6.9608   10.8951    4.1224 C   0  0  0  0  0  0  0  0  0  0  0  0
    6.0546    9.9052    3.4311 C   0  0  2  0  0  0  0  0  0  0  0  0
    6.0286   10.0862    1.9384 C   0  0  0  0  0  0  0  0  0  0  0  0
    4.6803    9.8557    4.0442 C   0  0  0  0  0  0  0  0  0  0  0  0
    4.4806    8.4794    4.6196 C   0  0  0  0  0  0  0  0  0  0  0  0
    4.5849    8.5953    6.1254 C   0  0  0  0  0  0  0  0  0  0  0  0
    3.4366    7.7966    6.7304 C   0  0  1  0  0  0  0  0  0  0  0  0
    3.4687    6.4328    6.0801 C   0  0  0  0  0  0  0  0  0  0  0  0
    3.6827    7.6640    8.2212 C   0  0  0  0  0  3  0  0  0  0  0  0
    3.3693    9.0068    8.8483 C   0  0  0  0  0  0  0  0  0  0  0  0
    2.8706    8.8220   10.2543 C   0  0  0  0  0  0  0  0  0  0  0  0
    3.4263    9.8876   11.1616 C   0  0  2  0  0  0  0  0  0  0  0  0
    2.3269   10.4439   12.0391 C   0  0  0  0  0  0  0  0  0  0  0  0
    4.1319   10.9873   10.4083 C   0  0  0  0  0  3  0  0  0  0  0  0
    3.2858   12.2251   10.2580 C   0  0  0  0  0  0  0  0  0  0  0  0
    3.7782   13.3854   11.0673 C   0  0  1  0  0  0  0  0  0  0  0  0
    4.7933   13.0124   12.1020 C   0  0  0  0  0  2  0  0  0  0  0  0
    4.1476   14.5807   10.2535 C   0  0  1  0  0  0  0  0  0  0  0  0
    4.7972   15.6090   11.1319 C   0  0  0  0  0  0  0  0  0  0  0  0
    4.9550   14.2609    9.0290 C   0  0  0  0  0  0  0  0  0  0  0  0
    6.3030   14.9293    9.1057 C   0  0  0  0  0  3  0  0  0  0  0  0
    6.9343   14.4795   10.2646 O   0  0  0  0  0  0  0  0  0  0  0  0
    7.1242   14.5151    7.8921 C   0  0  0  0  0  0  0  0  0  0  0  0
    7.0995   15.5969    6.8341 C   0  0  0  0  0  0  0  0  0  0  0  0
    7.5592   14.9940    5.5328 C   0  0  2  0  0  0  0  0  0  0  0  0
    8.1685   16.0745    4.6755 C   0  0  0  0  0  0  0  0  0  0  0  0
    6.3630   14.3506    4.8672 C   0  0  0  0  0  0  0  0  0  0  0  0
    6.7063   13.2316    4.1225 O   0  0  0  0  0  0  0  0  0  0  0  0
    6.1654   12.0667    4.6853 C   0  0  0  0  0  3  0  0  0  0  0  0
  1  2  1  0
  2  3  1  6
  2  4  1  0
  4  5  1  0
  5  6  1  0
  6  7  1  0
  7  8  1  6
  7  9  1  0
  9 10  1  0
 10 11  1  0
 11 12  1  0
 12 13  1  6
 12 14  1  0
 14 15  1  0
 15 16  1  0
 16 17  1  6
 16 18  1  0
 18 19  1  1
 18 20  1  0
 20 21  1  0
 21 22  1  0
 21 23  1  0
 23 24  1  0
 24 25  1  0
 25 26  1  6
 25 27  1  0
 27 28  1  0
 28 29  1  0
 29  1  1  0
M  RAD  5   9   2  14   2  17   3  21   2  29   2
M  END
>  <docking_score>  (2) 
-4.7850000000000001

$$$$

     RDKit          3D

 29 29  0  0  0  0  0  0  0  0999 V2000
    4.3458    7.8785    6.7109 C   0  0  0  0  0  0  0  0  0  0  0  0
    3.3994    7.4837    7.8189 C   0  0  2  0  0  0  0  0  0  0  0  0
    2.3720    6.4796    7.3743 C   0  0  0  0  0  0  0  0  0  0  0  0
    2.7980    8.6755    8.5154 C   0  0  0  0  0  0  0  0  0  0  0  0
    3.2677    8.6603    9.9452 C   0  0  0  0  0  0  0  0  0  0  0  0
    4.3096    9.7485   10.0944 C   0  0  0  0  0  0  0  0  0  0  0  0
    3.9998   10.5113   11.3769 C   0  0  1  0  0  0  0  0  0  0  0  0
    3.8359    9.4768   12.4663 C   0  0  0  0  0  0  0  0  0  0  0  0
    5.1796   11.4110   11.6921 C   0  0  0  0  0  3  0  0  0  0  0  0
    5.1250   12.5764   10.7261 C   0  0  0  0  0  0  0  0  0  0  0  0
    5.7103   13.8072   11.3601 C   0  0  0  0  0  0  0  0  0  0  0  0
    6.5270   14.5844   10.3620 C   0  0  2  0  0  0  0  0  0  0  0  0
    6.1952   16.0571   10.4578 C   0  0  0  0  0  0  0  0  0  0  0  0
    6.3614   14.0788    8.9508 C   0  0  0  0  0  3  0  0  0  0  0  0
    5.4246   14.9305    8.1338 C   0  0  0  0  0  0  0  0  0  0  0  0
    6.1140   15.7090    7.0556 C   0  0  1  0  0  0  0  0  0  0  0  0
    7.6030   15.7529    7.2005 C   0  0  0  0  0  2  0  0  0  0  0  0
    5.6448   15.3838    5.6766 C   0  0  1  0  0  0  0  0  0  0  0  0
    6.5181   16.0730    4.6700 C   0  0  0  0  0  0  0  0  0  0  0  0
    5.4934   13.9138    5.4129 C   0  0  0  0  0  0  0  0  0  0  0  0
    6.4188   13.4863    4.3037 C   0  0  0  0  0  3  0  0  0  0  0  0
    7.7201   13.8037    4.6907 O   0  0  0  0  0  0  0  0  0  0  0  0
    6.3012   11.9791    4.1218 C   0  0  0  0  0  0  0  0  0  0  0  0
    5.4020   11.6494    2.9501 C   0  0  0  0  0  0  0  0  0  0  0  0
    4.9939   10.2040    3.0613 C   0  0  2  0  0  0  0  0  0  0  0  0
    4.6928    9.6683    1.6843 C   0  0  0  0  0  0  0  0  0  0  0  0
    3.7905   10.1268    3.9742 C   0  0  0  0  0  0  0  0  0  0  0  0
    3.7510    8.9477    4.7042 O   0  0  0  0  0  0  0  0  0  0  0  0
    3.9245    9.1968    6.0732 C   0  0  0  0  0  3  0  0  0  0  0  0
  1  2  1  0
  2  3  1  6
  2  4  1  0
  4  5  1  0
  5  6  1  0
  6  7  1  0
  7  8  1  1
  7  9  1  0
  9 10  1  0
 10 11  1  0
 11 12  1  0
 12 13  1  6
 12 14  1  0
 14 15  1  0
 15 16  1  0
 16 17  1  6
 16 18  1  0
 18 19  1  6
 18 20  1  0
 20 21  1  0
 21 22  1  0
 21 23  1  0
 23 24  1  0
 24 25  1  0
 25 26  1  6
 25 27  1  0
 27 28  1  0
 28 29  1  0
 29  1  1  0
M  RAD  5   9   2  14   2  17   3  21   2  29   2
M  END
>  <docking_score>  (3) 
-4.5010000000000003

$$$$
