
     RDKit          3D

 45 47  0  0  0  0  0  0  0  0999 V2000
   21.2765    3.3937   -6.2986 C   0  0  0  0  0  0  0  0  0  0  0  0
   20.3866    2.4077   -7.0165 C   0  0  0  0  0  0  0  0  0  0  0  0
   21.1483    1.1512   -7.4103 C   0  0  0  0  0  0  0  0  0  0  0  0
   19.1615    2.0711   -6.1798 C   0  0  0  0  0  0  0  0  0  0  0  0
   18.1890    3.2203   -6.1869 C   0  0  0  0  0  0  0  0  0  0  0  0
   17.1695    3.0560   -5.0826 C   0  0  0  0  0  0  0  0  0  0  0  0
   16.1688    4.1588   -5.1063 C   0  0  1  0  0  0  0  0  0  0  0  0
   15.5896    4.4276   -6.4297 C   0  0  0  0  0  0  0  0  0  0  0  0
   15.1926    4.1507   -3.9789 C   0  0  0  0  0  3  0  0  0  0  0  0
   14.5992    2.7978   -3.7969 C   0  0  0  0  0  0  0  0  0  0  0  0
   14.6013    1.9185   -5.0001 C   0  0  0  0  0  0  0  0  0  0  0  0
   13.5521    0.8647   -5.0358 C   0  0  2  0  0  0  0  0  0  0  0  0
   12.3620    1.1048   -4.1575 C   0  0  0  0  0  0  0  0  0  0  0  0
   14.1868   -0.4587   -4.6723 C   0  0  0  0  0  0  0  0  0  0  0  0
   15.5051   -0.5638   -5.3415 C   0  0  1  0  0  0  0  0  0  0  0  0
   15.8850    0.7606   -5.8127 N   0  0  0  0  0  0  0  0  0  0  0  0
   16.5970   -1.2731   -4.6571 C   0  0  0  0  0  0  0  0  0  0  0  0
   17.8015   -1.5295   -5.4755 C   0  0  0  0  0  0  0  0  0  0  0  0
   18.6086   -2.6537   -5.0218 C   0  0  2  0  0  0  0  0  0  0  0  0
   19.3853   -2.5724   -3.0769 I   0  0  0  0  0  0  0  0  0  0  0  0
   19.3232   -3.4612   -5.9997 C   0  0  0  0  0  0  0  0  0  0  0  0
   20.7809   -3.3171   -6.0850 C   0  0  0  0  0  0  0  0  0  0  0  0
   21.3762   -3.8288   -7.3347 C   0  0  2  0  0  0  0  0  0  0  0  0
   21.0439   -3.0572   -8.5592 C   0  0  0  0  0  0  0  0  0  0  0  0
   21.1029   -5.2666   -7.5800 C   0  0  0  0  0  0  0  0  0  0  0  0
   21.2460   -6.4151   -8.4918 C   0  0  0  0  0  0  0  0  0  0  0  0
   20.5679   -6.4503   -7.1675 C   0  0  0  0  0  0  0  0  0  0  0  0
   19.8415   -7.2948   -6.1909 C   0  0  0  0  0  0  0  0  0  0  0  0
   19.6108   -6.6509   -4.8698 C   0  0  2  0  0  0  0  0  0  0  0  0
   21.2548   -5.5577   -4.1330 I   0  0  0  0  0  0  0  0  0  0  0  0
   18.9345   -7.5038   -3.8493 C   0  0  2  0  0  0  0  0  0  0  0  0
   19.8207   -8.7225   -3.6136 C   0  0  0  0  0  0  0  0  0  0  0  0
   17.6084   -8.0044   -4.3231 C   0  0  0  0  0  0  0  0  0  0  0  0
   16.5763   -7.7371   -3.2654 C   0  0  0  0  0  0  0  0  0  0  0  0
   15.2063   -8.0922   -3.8030 C   0  0  0  0  0  3  0  0  0  0  0  0
   14.2874   -6.9201   -3.5261 C   0  0  0  0  0  0  0  0  0  0  0  0
   14.5076   -5.8163   -4.5079 C   0  0  0  0  0  0  0  0  0  0  0  0
   15.8888   -5.5939   -4.9590 C   0  0  2  0  0  0  0  0  0  0  0  0
   16.8251   -7.1993   -5.9393 I   0  0  0  0  0  0  0  0  0  0  0  0
   16.7906   -4.9510   -3.9769 C   0  0  0  0  0  3  0  0  0  0  0  0
   16.0338   -4.1479   -2.9760 C   0  0  1  0  0  0  0  0  0  0  0  0
   16.4069   -4.5393   -1.5354 C   0  0  0  0  0  0  0  0  0  0  0  0
   16.6944   -3.1214   -1.1690 C   0  0  2  0  0  0  0  0  0  0  0  0
   15.8647   -1.9962   -1.6501 C   0  0  0  0  0  0  0  0  0  0  0  0
   16.7025   -2.8047   -2.6608 C   0  0  2  0  0  0  0  0  0  0  0  0
  1  2  1  0
  2  3  1  0
  2  4  1  0
  4  5  1  0
  5  6  1  0
  6  7  1  0
  7  8  1  6
  7  9  1  0
  9 10  1  0
 10 11  1  0
 11 12  1  0
 12 13  1  1
 12 14  1  0
 14 15  1  0
 15 16  1  1
 15 17  1  0
 17 18  1  0
 18 19  1  0
 19 20  1  1
 19 21  1  0
 21 22  1  0
 22 23  1  0
 23 24  1  6
 23 25  1  0
 25 26  1  0
 26 27  1  0
 27 28  1  0
 28 29  1  0
 29 30  1  1
 29 31  1  0
 31 32  1  6
 31 33  1  0
 33 34  1  0
 34 35  1  0
 35 36  1  0
 36 37  1  0
 37 38  1  0
 38 39  1  1
 38 40  1  0
 41 40  1  6
 41 42  1  0
 43 42  1  6
 43 44  1  0
 43 45  1  0
 25 27  2  0
 45 41  1  0
 45 44  1  1
M  RAD  3   9   2  35   2  40   2
M  END
>  <docking_score>  (1) 
16

$$$$
