
     RDKit          3D

  9  9  0  0  0  0  0  0  0  0999 V2000
    5.2811   -2.2267   -7.8849 C   0  0  0  0  0  0  0  0  0  0  0  0
    5.6858   -3.5454   -7.2448 C   0  0  0  0  0  2  0  0  0  0  0  0
    5.4932   -2.8530   -5.9025 C   0  0  0  0  0  0  0  0  0  0  0  0
    5.5493   -1.4864   -6.5794 C   0  0  0  0  0  0  0  0  0  0  0  0
    6.8202   -0.9742   -6.4369 O   0  0  0  0  0  0  0  0  0  0  0  0
    6.8771    0.2164   -5.9148 O   0  0  0  0  0  0  0  0  0  0  0  0
    6.4719    1.1191   -6.9104 C   0  0  0  0  0  3  0  0  0  0  0  0
    6.3477    2.4119   -6.3864 O   0  0  0  0  0  0  0  0  0  0  0  0
    6.5129    2.3526   -5.0010 C   0  0  0  0  0  2  0  0  0  0  0  0
  1  2  1  0
  2  3  1  0
  3  4  1  0
  4  5  1  0
  5  6  1  0
  6  7  1  0
  7  8  1  0
  8  9  1  0
  4  1  1  0
M  RAD  3   2   3   7   2   9   3
M  END
>  <docking_score>  (1) 
-3.843

$$$$

     RDKit          3D

  9  9  0  0  0  0  0  0  0  0999 V2000
    4.8552   -3.0632   -8.1138 C   0  0  0  0  0  0  0  0  0  0  0  0
    5.6182   -3.9385   -7.1319 C   0  0  0  0  0  2  0  0  0  0  0  0
    5.6501   -2.7267   -6.2106 C   0  0  0  0  0  0  0  0  0  0  0  0
    5.3101   -1.8067   -7.3798 C   0  0  0  0  0  0  0  0  0  0  0  0
    6.4736   -1.2348   -7.8454 O   0  0  0  0  0  0  0  0  0  0  0  0
    6.3785    0.0238   -8.1620 O   0  0  0  0  0  0  0  0  0  0  0  0
    5.8270    0.6836   -7.0525 C   0  0  0  0  0  3  0  0  0  0  0  0
    6.4364    1.9304   -6.8641 O   0  0  0  0  0  0  0  0  0  0  0  0
    6.3946    2.2498   -5.5053 C   0  0  0  0  0  2  0  0  0  0  0  0
  1  2  1  0
  2  3  1  0
  3  4  1  0
  4  5  1  0
  5  6  1  0
  6  7  1  0
  7  8  1  0
  8  9  1  0
  4  1  1  0
M  RAD  3   2   3   7   2   9   3
M  END
>  <docking_score>  (2) 
-3.6269999999999998

$$$$

     RDKit          3D

  9  9  0  0  0  0  0  0  0  0999 V2000
    6.2827    2.0824   -6.8942 C   0  0  0  0  0  0  0  0  0  0  0  0
    6.4136    2.2014   -5.3839 C   0  0  0  0  0  2  0  0  0  0  0  0
    7.2051    0.9018   -5.4374 C   0  0  0  0  0  0  0  0  0  0  0  0
    6.6602    0.6066   -6.8318 C   0  0  0  0  0  0  0  0  0  0  0  0
    5.6055   -0.2723   -6.7176 O   0  0  0  0  0  0  0  0  0  0  0  0
    5.8594   -1.4883   -7.1051 O   0  0  0  0  0  0  0  0  0  0  0  0
    5.4464   -1.5854   -8.4431 C   0  0  0  0  0  3  0  0  0  0  0  0
    5.0296   -2.8891   -8.7397 O   0  0  0  0  0  0  0  0  0  0  0  0
    5.1128   -3.6619   -7.5796 C   0  0  0  0  0  2  0  0  0  0  0  0
  1  2  1  0
  2  3  1  0
  3  4  1  0
  4  5  1  0
  5  6  1  0
  6  7  1  0
  7  8  1  0
  8  9  1  0
  4  1  1  0
M  RAD  3   2   3   7   2   9   3
M  END
>  <docking_score>  (3) 
-3.5350000000000001

$$$$
