
     RDKit          3D

 29 30  0  0  0  0  0  0  0  0999 V2000
   14.3304    0.0194   -5.1027 C   0  0  0  0  0  0  0  0  0  0  0  0
   14.0201   -0.7293   -3.9433 O   0  0  0  0  0  0  0  0  0  0  0  0
   14.8538   -1.9668   -4.0177 C   0  0  0  0  0  3  0  0  0  0  0  0
   16.1232   -1.3741   -3.7141 O   0  0  0  0  0  0  0  0  0  0  0  0
   16.7310   -2.2594   -2.7686 C   0  0  2  0  0  0  0  0  0  0  0  0
   16.3509   -1.3551   -1.4677 C   0  0  0  0  0  0  0  0  0  0  0  0
   18.2313   -1.7122   -2.8741 C   0  0  0  0  0  3  0  0  0  0  0  0
   19.1866   -2.7289   -3.3199 C   0  0  1  0  0  0  0  0  0  0  0  0
   19.2045   -3.8239   -2.3350 N   0  0  0  0  0  0  0  0  0  0  0  0
   19.7858   -3.1241   -1.1313 C   0  0  0  0  0  2  0  0  0  0  0  0
   19.2864   -3.0851   -4.7388 C   0  0  0  0  0  3  0  0  0  0  0  0
   17.9727   -3.0544   -5.5083 C   0  0  2  0  0  0  0  0  0  0  0  0
   17.4429   -4.3794   -5.7815 C   0  0  0  0  0  0  0  0  0  0  0  0
   16.8354   -5.0317   -4.7879 C   0  0  0  0  0  3  0  0  0  0  0  0
   18.4199   -2.4175   -6.8756 C   0  0  0  0  0  0  0  0  0  0  0  0
   17.2974   -2.4964   -7.8437 C   0  0  0  0  0  3  0  0  0  0  0  0
   16.1204   -2.0556   -7.2339 O   0  0  0  0  0  0  0  0  0  0  0  0
   15.0189   -2.7729   -7.6207 C   0  0  0  0  0  3  0  0  0  0  0  0
   15.4113   -4.1392   -8.7354 S   0  0  0  0  0  0  0  0  0  0  0  0
   15.1652   -5.6971   -7.8168 C   0  0  0  0  0  3  0  0  0  0  0  0
   16.5047   -6.1258   -7.3067 C   0  0  2  0  0  0  0  0  0  0  0  0
   16.4377   -6.9458   -6.1940 O   0  0  0  0  0  0  0  0  0  0  0  0
   17.4241   -4.9248   -7.1235 C   0  0  2  0  0  0  0  0  0  0  0  0
   18.8088   -5.3630   -7.4923 C   0  0  0  0  0  3  0  0  0  0  0  0
   19.1478   -6.6379   -6.7383 C   0  0  0  0  0  3  0  0  0  0  0  0
   18.4118   -7.8384   -7.2598 C   0  0  2  0  0  0  0  0  0  0  0  0
   18.1196   -7.6993   -8.7314 C   0  0  0  0  0  2  0  0  0  0  0  0
   17.1342   -8.1205   -6.5089 C   0  0  1  0  0  0  0  0  0  0  0  0
   17.3790   -8.9627   -5.2862 C   0  0  0  0  0  1  0  0  0  0  0  0
  1  2  1  0
  2  3  1  0
  3  4  1  0
  4  5  1  0
  5  6  1  1
  5  7  1  0
  8  7  1  6
  8  9  1  0
  9 10  1  0
  8 11  1  0
 12 11  1  1
 12 13  1  0
 13 14  2  0
 12 15  1  0
 15 16  1  0
 16 17  1  0
 17 18  1  0
 18 19  1  0
 19 20  1  0
 21 20  1  1
 21 22  1  0
 21 23  1  0
 23 24  1  1
 24 25  1  0
 25 26  1  0
 26 27  1  6
 26 28  1  0
 28 29  1  1
 23 13  1  0
 28 22  1  0
M  RAD  8   3   2   7   2  10   3  11   2  14   2  16   2  18   2  20   2
M  RAD  4  24   2  25   2  27   3  29   2
M  END
>  <docking_score>  (1) 
-4.2000000000000002

$$$$

     RDKit          3D

 29 30  0  0  0  0  0  0  0  0999 V2000
    5.8145    8.0451   11.7803 C   0  0  0  0  0  0  0  0  0  0  0  0
    4.4043    8.1482   11.7395 O   0  0  0  0  0  0  0  0  0  0  0  0
    4.0668    8.6284   10.3657 C   0  0  0  0  0  3  0  0  0  0  0  0
    3.1261    9.6461   10.7323 O   0  0  0  0  0  0  0  0  0  0  0  0
    3.8192   10.8822   10.5355 C   0  0  2  0  0  0  0  0  0  0  0  0
    3.2556   11.5758   11.8977 C   0  0  0  0  0  0  0  0  0  0  0  0
    2.7526   11.5924    9.5765 C   0  0  0  0  0  3  0  0  0  0  0  0
    3.2540   11.8120    8.2180 C   0  0  1  0  0  0  0  0  0  0  0  0
    2.7257   13.0940    7.7213 N   0  0  0  0  0  0  0  0  0  0  0  0
    3.4122   14.0699    8.6448 C   0  0  0  0  0  2  0  0  0  0  0  0
    4.6340   11.4607    7.8681 C   0  0  0  0  0  3  0  0  0  0  0  0
    4.7804   10.2843    6.9122 C   0  0  2  0  0  0  0  0  0  0  0  0
    5.1579   10.6875    5.5684 C   0  0  0  0  0  0  0  0  0  0  0  0
    6.4319   11.0168    5.3443 C   0  0  0  0  0  3  0  0  0  0  0  0
    3.3082    9.7323    6.8594 C   0  0  0  0  0  0  0  0  0  0  0  0
    3.2115    8.6936    5.8035 C   0  0  0  0  0  3  0  0  0  0  0  0
    4.2761    7.7977    5.9283 O   0  0  0  0  0  0  0  0  0  0  0  0
    4.7629    7.3767    4.7186 C   0  0  0  0  0  3  0  0  0  0  0  0
    3.9542    8.1660    3.3092 S   0  0  0  0  0  0  0  0  0  0  0  0
    5.1563    9.3055    2.5423 C   0  0  0  0  0  3  0  0  0  0  0  0
    4.8768   10.6722    3.0829 C   0  0  2  0  0  0  0  0  0  0  0  0
    5.9687   11.5211    3.0356 O   0  0  0  0  0  0  0  0  0  0  0  0
    4.2303   10.5880    4.4600 C   0  0  2  0  0  0  0  0  0  0  0  0
    3.2349   11.7041    4.5542 C   0  0  0  0  0  3  0  0  0  0  0  0
    3.9083   13.0094    4.1648 C   0  0  0  0  0  3  0  0  0  0  0  0
    4.1824   13.1087    2.6918 C   0  0  2  0  0  0  0  0  0  0  0  0
    3.1627   12.3357    1.8962 C   0  0  0  0  0  2  0  0  0  0  0  0
    5.5724   12.6576    2.3177 C   0  0  1  0  0  0  0  0  0  0  0  0
    6.5756   13.7716    2.4483 C   0  0  0  0  0  1  0  0  0  0  0  0
  1  2  1  0
  2  3  1  0
  3  4  1  0
  4  5  1  0
  5  6  1  1
  5  7  1  0
  8  7  1  1
  8  9  1  0
  9 10  1  0
  8 11  1  0
 12 11  1  1
 12 13  1  0
 13 14  2  0
 12 15  1  0
 15 16  1  0
 16 17  1  0
 17 18  1  0
 18 19  1  0
 19 20  1  0
 21 20  1  1
 21 22  1  0
 21 23  1  0
 23 24  1  1
 24 25  1  0
 25 26  1  0
 26 27  1  6
 26 28  1  0
 28 29  1  1
 23 13  1  0
 28 22  1  0
M  RAD  8   3   2   7   2  10   3  11   2  14   2  16   2  18   2  20   2
M  RAD  4  24   2  25   2  27   3  29   2
M  END
>  <docking_score>  (2) 
-4.0099999999999998

$$$$
