
     RDKit          3D

 26 28  0  0  0  0  0  0  0  0999 V2000
   14.0307   -4.0515   -5.5072 C   0  0  0  0  0  0  0  0  0  0  0  0
   14.9303   -4.0960   -6.7245 C   0  0  0  0  0  0  0  0  0  0  0  0
   14.2916   -4.7945   -7.8882 C   0  0  0  0  0  0  0  0  0  0  0  0
   15.4392   -2.7296   -7.0967 C   0  0  0  0  0  0  0  0  0  0  0  0
   16.8914   -2.5522   -6.7878 C   0  0  0  0  0  0  0  0  0  0  0  0
   17.7549   -3.6145   -7.4612 C   0  0  0  0  0  0  0  0  0  0  0  0
   19.0790   -3.6165   -6.7685 C   0  0  1  0  0  0  0  0  0  0  0  0
   19.3349   -4.8155   -5.9200 C   0  0  0  0  0  0  0  0  0  0  0  0
   20.2314   -3.2386   -7.6496 C   0  0  0  0  0  3  0  0  0  0  0  0
   20.0173   -1.7840   -8.0729 C   0  0  0  0  0  3  0  0  0  0  0  0
   21.0816   -0.8947   -7.4597 C   0  0  0  0  0  0  0  0  0  0  0  0
   20.7659   -0.5621   -6.0156 C   0  0  1  0  0  0  0  0  0  0  0  0
   20.9525    0.9041   -5.7114 C   0  0  0  0  0  0  0  0  0  0  0  0
   19.3446   -0.9406   -5.6600 C   0  0  0  0  0  0  0  0  0  0  0  0
   19.1419   -0.6404   -4.1894 C   0  0  2  0  0  0  0  0  0  0  0  0
   20.4243   -0.7047   -3.5386 N   0  0  0  0  0  0  0  0  0  0  0  0
   18.2978   -1.7835   -3.6334 C   0  0  0  0  0  3  0  0  0  0  0  0
   19.1554   -2.7653   -2.9168 C   0  0  0  0  0  0  0  0  0  0  0  0
   19.9208   -2.9488   -1.9133 C   0  0  0  0  0  0  0  0  0  0  0  0
   20.3424   -2.0906   -0.8559 O   0  0  0  0  0  0  0  0  0  0  0  0
   20.1700   -4.3318   -2.2823 C   0  0  0  0  0  0  0  0  0  0  0  0
   19.2936   -4.0884   -3.4140 C   0  0  1  0  0  0  0  0  0  0  0  0
   17.9896   -4.7997   -3.4673 C   0  0  0  0  0  0  0  0  0  0  0  0
   16.6546   -5.4508   -3.3096 C   0  0  0  0  0  0  0  0  0  0  0  0
   17.5006   -5.4319   -4.4923 C   0  0  0  0  0  0  0  0  0  0  0  0
   18.0709   -5.6162   -5.8316 C   0  0  0  0  0  0  0  0  0  0  0  0
  1  2  1  0
  2  3  1  0
  2  4  1  0
  4  5  1  0
  5  6  1  0
  7  6  1  6
  7  8  1  0
  7  9  1  0
  9 10  1  0
 10 11  1  0
 11 12  1  0
 12 13  1  6
 12 14  1  0
 14 15  1  0
 15 16  1  1
 15 17  1  0
 17 18  1  0
 18 19  2  0
 19 20  1  0
 19 21  1  0
 22 21  1  1
 22 23  1  0
 23 24  1  0
 23 25  2  0
 25 26  1  0
 26  8  1  0
 22 18  1  0
 25 24  1  0
M  RAD  3   9   2  10   2  17   2
M  END
>  <docking_score>  (1) 
-4.641

$$$$
