
     RDKit          3D

 29 29  0  0  0  0  0  0  0  0999 V2000
   14.3713   -3.0529   -5.1608 C   0  0  0  0  0  0  0  0  0  0  0  0
   14.7308   -1.5996   -4.9948 C   0  0  0  0  0  0  0  0  0  0  0  0
   13.5011   -0.7493   -4.7302 C   0  0  0  0  0  0  0  0  0  0  0  0
   15.4587   -1.1024   -6.2352 C   0  0  0  0  0  0  0  0  0  0  0  0
   15.0302   -1.9698   -7.3804 C   0  0  0  0  0  0  0  0  0  0  0  0
   16.1249   -2.2198   -8.3815 C   0  0  0  0  0  0  0  0  0  0  0  0
   17.2856   -2.8658   -7.6792 C   0  0  1  0  0  0  0  0  0  0  0  0
   17.5468   -4.2764   -8.1309 C   0  0  0  0  0  0  0  0  0  0  0  0
   18.5024   -1.9655   -7.9148 C   0  0  0  0  0  3  0  0  0  0  0  0
   19.0811   -1.6737   -6.5499 C   0  0  0  0  0  0  0  0  0  0  0  0
   18.4903   -2.6500   -5.5595 C   0  0  0  0  0  0  0  0  0  0  0  0
   19.2388   -2.5424   -4.2741 C   0  0  1  0  0  0  0  0  0  0  0  0
   18.6982   -3.4017   -3.1876 C   0  0  1  0  0  0  0  0  0  0  0  0
   19.4523   -4.6631   -2.9242 C   0  0  0  0  0  3  0  0  0  0  0  0
   19.0887   -5.7380   -3.8817 C   0  0  0  0  0  0  0  0  0  0  0  0
   20.1974   -6.4422   -4.5484 C   0  0  1  0  0  0  0  0  0  0  0  0
   20.1478   -7.9171   -4.6202 C   0  0  1  0  0  0  0  0  0  0  0  0
   21.3386   -8.6345   -4.0649 C   0  0  0  0  0  0  0  0  0  0  0  0
   18.8399   -8.5088   -4.1471 C   0  0  0  0  0  0  0  0  0  0  0  0
   18.0240   -8.7904   -5.2188 O   0  0  0  0  0  0  0  0  0  0  0  0
   20.6439   -5.8588   -5.8423 C   0  0  0  0  0  0  0  0  0  0  0  0
   19.9461   -6.6434   -6.9616 C   0  0  0  0  0  0  0  0  0  0  0  0
   20.7252   -2.5461   -4.4025 C   0  0  1  0  0  0  0  0  0  0  0  0
   21.2209   -1.2283   -4.2584 O   0  0  0  0  0  0  0  0  0  0  0  0
   21.2583   -3.2560   -3.3295 O   0  0  0  0  0  0  0  0  0  0  0  0
   21.1976   -2.3583   -1.8765 S   0  0  0  0  0  0  0  0  0  0  0  0
   19.5604   -1.6901   -1.5433 C   0  0  0  0  0  0  0  0  0  0  0  0
   18.4474   -2.5833   -1.9673 C   0  0  1  0  0  0  0  0  0  0  0  0
   16.9789   -1.5574   -2.2689 S   0  0  0  0  0  0  0  0  0  0  0  0
  1  2  1  0
  2  3  1  0
  2  4  1  0
  4  5  1  0
  5  6  1  0
  6  7  1  0
  7  8  1  6
  7  9  1  0
  9 10  1  0
 10 11  1  0
 12 11  1  6
 12 13  1  0
 13 14  1  1
 14 15  1  0
 16 15  1  6
 16 17  1  0
 17 18  1  1
 17 19  1  0
 19 20  1  0
 16 21  1  0
 21 22  1  0
 12 23  1  0
 23 24  1  1
 23 25  1  0
 25 26  1  0
 26 27  1  0
 27 28  1  0
 28 29  1  6
 28 13  1  0
M  RAD  2   9   2  14   2
M  END
>  <docking_score>  (1) 
-3.665

$$$$

     RDKit          3D

 29 29  0  0  0  0  0  0  0  0999 V2000
   20.6091   -8.0814   -6.2623 C   0  0  0  0  0  0  0  0  0  0  0  0
   20.9868   -7.4587   -4.9437 C   0  0  0  0  0  0  0  0  0  0  0  0
   20.7898   -8.4300   -3.7935 C   0  0  0  0  0  0  0  0  0  0  0  0
   20.1675   -6.1970   -4.7146 C   0  0  0  0  0  0  0  0  0  0  0  0
   20.0205   -6.0246   -3.2327 C   0  0  0  0  0  0  0  0  0  0  0  0
   18.5986   -5.7991   -2.7965 C   0  0  0  0  0  0  0  0  0  0  0  0
   18.4801   -4.4133   -2.2278 C   0  0  1  0  0  0  0  0  0  0  0  0
   19.7734   -3.8832   -1.6725 C   0  0  0  0  0  0  0  0  0  0  0  0
   17.9410   -3.5192   -3.3489 C   0  0  0  0  0  3  0  0  0  0  0  0
   17.7095   -2.1606   -2.7295 C   0  0  0  0  0  0  0  0  0  0  0  0
   16.2307   -1.9996   -2.4647 C   0  0  0  0  0  0  0  0  0  0  0  0
   15.5973   -1.3563   -3.6516 C   0  0  1  0  0  0  0  0  0  0  0  0
   15.7591   -2.1266   -4.9133 C   0  0  1  0  0  0  0  0  0  0  0  0
   14.5668   -2.9123   -5.3493 C   0  0  0  0  0  3  0  0  0  0  0  0
   14.7451   -4.3678   -5.1166 C   0  0  0  0  0  0  0  0  0  0  0  0
   15.2986   -5.1595   -6.2286 C   0  0  1  0  0  0  0  0  0  0  0  0
   16.6390   -5.7586   -6.0625 C   0  0  1  0  0  0  0  0  0  0  0  0
   16.6609   -7.1837   -5.6050 C   0  0  0  0  0  0  0  0  0  0  0  0
   17.5696   -5.5074   -7.2267 C   0  0  0  0  0  0  0  0  0  0  0  0
   17.9117   -4.1760   -7.2902 O   0  0  0  0  0  0  0  0  0  0  0  0
   14.3579   -6.1219   -6.8631 C   0  0  0  0  0  0  0  0  0  0  0  0
   13.5107   -5.3343   -7.8717 C   0  0  0  0  0  0  0  0  0  0  0  0
   14.2317   -0.8018   -3.4203 C   0  0  1  0  0  0  0  0  0  0  0  0
   14.3035    0.6051   -3.2843 O   0  0  0  0  0  0  0  0  0  0  0  0
   13.4683   -1.0193   -4.5646 O   0  0  0  0  0  0  0  0  0  0  0  0
   13.8932    0.0495   -5.8286 S   0  0  0  0  0  0  0  0  0  0  0  0
   15.6637    0.0733   -6.1495 C   0  0  0  0  0  0  0  0  0  0  0  0
   16.3250   -1.2493   -5.9773 C   0  0  1  0  0  0  0  0  0  0  0  0
   18.0783   -0.9629   -5.5980 S   0  0  0  0  0  0  0  0  0  0  0  0
  1  2  1  0
  2  3  1  0
  2  4  1  0
  4  5  1  0
  5  6  1  0
  6  7  1  0
  7  8  1  6
  7  9  1  0
  9 10  1  0
 10 11  1  0
 12 11  1  1
 12 13  1  0
 13 14  1  6
 14 15  1  0
 16 15  1  1
 16 17  1  0
 17 18  1  6
 17 19  1  0
 19 20  1  0
 16 21  1  0
 21 22  1  0
 12 23  1  0
 23 24  1  6
 23 25  1  0
 25 26  1  0
 26 27  1  0
 27 28  1  0
 28 29  1  1
 28 13  1  0
M  RAD  2   9   2  14   2
M  END
>  <docking_score>  (2) 
-3.048

$$$$

     RDKit          3D

 29 29  0  0  0  0  0  0  0  0999 V2000
   18.2957   -5.8328   -8.6572 C   0  0  0  0  0  0  0  0  0  0  0  0
   19.6431   -6.2771   -8.1511 C   0  0  0  0  0  0  0  0  0  0  0  0
   20.7534   -5.3756   -8.6605 C   0  0  0  0  0  0  0  0  0  0  0  0
   19.9015   -7.7181   -8.5664 C   0  0  0  0  0  0  0  0  0  0  0  0
   19.6938   -8.5749   -7.3539 C   0  0  0  0  0  0  0  0  0  0  0  0
   19.8344   -7.8212   -6.0597 C   0  0  0  0  0  0  0  0  0  0  0  0
   18.4667   -7.5926   -5.4810 C   0  0  1  0  0  0  0  0  0  0  0  0
   17.6432   -8.8471   -5.3813 C   0  0  0  0  0  0  0  0  0  0  0  0
   18.6696   -6.9426   -4.1087 C   0  0  0  0  0  3  0  0  0  0  0  0
   19.7158   -5.8696   -4.3014 C   0  0  0  0  0  0  0  0  0  0  0  0
   19.1321   -4.7808   -5.1713 C   0  0  0  0  0  0  0  0  0  0  0  0
   19.3337   -3.4666   -4.4959 C   0  0  1  0  0  0  0  0  0  0  0  0
   18.5045   -2.3668   -5.0566 C   0  0  1  0  0  0  0  0  0  0  0  0
   17.2913   -2.0033   -4.2660 C   0  0  0  0  0  3  0  0  0  0  0  0
   16.0987   -2.7793   -4.6900 C   0  0  0  0  0  0  0  0  0  0  0  0
   15.1332   -2.0950   -5.5670 C   0  0  1  0  0  0  0  0  0  0  0  0
   14.7165   -0.7223   -5.2133 C   0  0  1  0  0  0  0  0  0  0  0  0
   14.2295    0.1214   -6.3498 C   0  0  0  0  0  0  0  0  0  0  0  0
   13.8103   -0.6502   -4.0058 C   0  0  0  0  0  0  0  0  0  0  0  0
   14.5486   -0.4504   -2.8618 O   0  0  0  0  0  0  0  0  0  0  0  0
   15.3936   -2.2151   -7.0270 C   0  0  0  0  0  0  0  0  0  0  0  0
   15.7160   -3.6879   -7.3134 C   0  0  0  0  0  0  0  0  0  0  0  0
   19.3887   -3.5201   -3.0059 C   0  0  1  0  0  0  0  0  0  0  0  0
   20.7322   -3.4174   -2.5730 O   0  0  0  0  0  0  0  0  0  0  0  0
   18.7549   -2.3876   -2.5007 O   0  0  0  0  0  0  0  0  0  0  0  0
   19.7175   -0.9862   -2.6740 S   0  0  0  0  0  0  0  0  0  0  0  0
   20.3289   -0.7691   -4.3524 C   0  0  0  0  0  0  0  0  0  0  0  0
   19.3687   -1.2031   -5.4042 C   0  0  1  0  0  0  0  0  0  0  0  0
   20.3139   -1.6287   -6.8958 S   0  0  0  0  0  0  0  0  0  0  0  0
  1  2  1  0
  2  3  1  0
  2  4  1  0
  4  5  1  0
  5  6  1  0
  6  7  1  0
  7  8  1  1
  7  9  1  0
  9 10  1  0
 10 11  1  0
 12 11  1  1
 12 13  1  0
 13 14  1  1
 14 15  1  0
 16 15  1  1
 16 17  1  0
 17 18  1  6
 17 19  1  0
 19 20  1  0
 16 21  1  0
 21 22  1  0
 12 23  1  0
 23 24  1  6
 23 25  1  0
 25 26  1  0
 26 27  1  0
 27 28  1  0
 28 29  1  6
 28 13  1  0
M  RAD  2   9   2  14   2
M  END
>  <docking_score>  (3) 
-2.6859999999999999

$$$$
