
     RDKit          3D

 23 24  0  0  0  0  0  0  0  0999 V2000
   16.5988   -1.8959   -2.1223 C   0  0  0  0  0  0  0  0  0  0  0  0
   17.9117   -1.8007   -2.8478 C   0  0  1  0  0  0  0  0  0  0  0  0
   19.0622   -1.5564   -1.9264 C   0  0  0  0  0  0  0  0  0  0  0  0
   19.6449   -2.8477   -1.3628 C   0  0  2  0  0  0  0  0  0  0  0  0
   20.6834   -2.4626   -0.5102 O   0  0  0  0  0  0  0  0  0  0  0  0
   20.1715   -3.6051   -2.5771 C   0  0  2  0  0  0  0  0  0  0  0  0
   20.9950   -2.7211   -3.2602 O   0  0  0  0  0  0  0  0  0  0  0  0
   18.9736   -4.0197   -3.3791 C   0  0  1  0  0  0  0  0  0  0  0  0
   18.2713   -4.9946   -2.6977 O   0  0  0  0  0  0  0  0  0  0  0  0
   18.1320   -2.8797   -3.8573 C   0  0  1  0  0  0  0  0  0  0  0  0
   16.8194   -3.3721   -4.2563 N   0  0  0  0  0  0  0  0  0  0  0  0
   16.6322   -3.3502   -5.6828 C   0  0  1  0  0  0  0  0  0  0  0  0
   17.2109   -4.5331   -6.3959 C   0  0  0  0  0  0  0  0  0  0  0  0
   16.3635   -5.7566   -6.3823 C   0  0  1  0  0  0  0  0  0  0  0  0
   15.8548   -6.1049   -5.1539 O   0  0  0  0  0  0  0  0  0  0  0  0
   15.3994   -5.8730   -7.5173 C   0  0  2  0  0  0  0  0  0  0  0  0
   16.0526   -5.9359   -8.7344 O   0  0  0  0  0  0  0  0  0  0  0  0
   14.2924   -4.8574   -7.4849 C   0  0  1  0  0  0  0  0  0  0  0  0
   13.5358   -5.0779   -6.3309 O   0  0  0  0  0  0  0  0  0  0  0  0
   14.9306   -3.4894   -7.4815 C   0  0  2  0  0  0  0  0  0  0  0  0
   16.0909   -3.4439   -8.2442 O   0  0  0  0  0  0  0  0  0  0  0  0
   15.2262   -3.0197   -6.0877 C   0  0  1  0  0  0  0  0  0  0  0  0
   14.2972   -3.4279   -5.1496 O   0  0  0  0  0  0  0  0  0  0  0  0
  2  1  1  1
  2  3  1  0
  3  4  1  0
  4  5  1  1
  4  6  1  0
  6  7  1  6
  6  8  1  0
  8  9  1  1
  8 10  1  0
 10 11  1  1
 12 11  1  1
 12 13  1  0
 13 14  1  0
 14 15  1  1
 14 16  1  0
 16 17  1  6
 16 18  1  0
 18 19  1  1
 18 20  1  0
 20 21  1  6
 20 22  1  0
 22 23  1  1
 10  2  1  0
 22 12  1  0
M  END
>  <docking_score>  (1) 
-5.2329999999999997

$$$$

     RDKit          3D

 23 24  0  0  0  0  0  0  0  0999 V2000
    2.2575   10.4452    3.3179 C   0  0  0  0  0  0  0  0  0  0  0  0
    3.0027   10.1284    4.5842 C   0  0  1  0  0  0  0  0  0  0  0  0
    2.5992    8.8176    5.1770 C   0  0  0  0  0  0  0  0  0  0  0  0
    3.3902    7.6475    4.6028 C   0  0  2  0  0  0  0  0  0  0  0  0
    2.8908    6.5009    5.2270 O   0  0  0  0  0  0  0  0  0  0  0  0
    4.8369    7.9157    5.0034 C   0  0  2  0  0  0  0  0  0  0  0  0
    4.8278    8.1312    6.3744 O   0  0  0  0  0  0  0  0  0  0  0  0
    5.2818    9.1213    4.2297 C   0  0  1  0  0  0  0  0  0  0  0  0
    5.3947    8.8003    2.8909 O   0  0  0  0  0  0  0  0  0  0  0  0
    4.4772   10.3530    4.4984 C   0  0  1  0  0  0  0  0  0  0  0  0
    4.7044   11.3285    3.4395 N   0  0  0  0  0  0  0  0  0  0  0  0
    5.3813   12.5074    3.9113 C   0  0  1  0  0  0  0  0  0  0  0  0
    6.7080   12.2382    4.5518 C   0  0  0  0  0  0  0  0  0  0  0  0
    7.8428   12.0607    3.6053 C   0  0  1  0  0  0  0  0  0  0  0  0
    7.6041   11.2056    2.5561 O   0  0  0  0  0  0  0  0  0  0  0  0
    8.5667   13.3155    3.2407 C   0  0  2  0  0  0  0  0  0  0  0  0
    9.1476   13.9068    4.3473 O   0  0  0  0  0  0  0  0  0  0  0  0
    7.7552   14.2693    2.4102 C   0  0  1  0  0  0  0  0  0  0  0  0
    7.4610   13.6441    1.1955 O   0  0  0  0  0  0  0  0  0  0  0  0
    6.5034   14.5971    3.1874 C   0  0  2  0  0  0  0  0  0  0  0  0
    6.7303   14.6582    4.5567 O   0  0  0  0  0  0  0  0  0  0  0  0
    5.4029   13.6179    2.9032 C   0  0  1  0  0  0  0  0  0  0  0  0
    5.3903   13.1503    1.6028 O   0  0  0  0  0  0  0  0  0  0  0  0
  2  1  1  6
  2  3  1  0
  3  4  1  0
  4  5  1  1
  4  6  1  0
  6  7  1  1
  6  8  1  0
  8  9  1  6
  8 10  1  0
 10 11  1  6
 12 11  1  6
 12 13  1  0
 13 14  1  0
 14 15  1  6
 14 16  1  0
 16 17  1  1
 16 18  1  0
 18 19  1  6
 18 20  1  0
 20 21  1  1
 20 22  1  0
 22 23  1  6
 10  2  1  0
 22 12  1  0
M  END
>  <docking_score>  (2) 
-4.7279999999999998

$$$$

     RDKit          3D

 23 24  0  0  0  0  0  0  0  0999 V2000
    5.5917   13.5946    5.3816 C   0  0  0  0  0  0  0  0  0  0  0  0
    5.4992   13.6063    3.8813 C   0  0  1  0  0  0  0  0  0  0  0  0
    6.4093   14.6130    3.2564 C   0  0  0  0  0  0  0  0  0  0  0  0
    7.8097   14.0627    3.0104 C   0  0  2  0  0  0  0  0  0  0  0  0
    8.5444   15.1127    2.4523 O   0  0  0  0  0  0  0  0  0  0  0  0
    7.6165   12.9252    2.0133 C   0  0  2  0  0  0  0  0  0  0  0  0
    6.8911   13.4542    0.9549 O   0  0  0  0  0  0  0  0  0  0  0  0
    6.8778   11.8386    2.7372 C   0  0  1  0  0  0  0  0  0  0  0  0
    7.7017   11.2686    3.6881 O   0  0  0  0  0  0  0  0  0  0  0  0
    5.5368   12.2501    3.2559 C   0  0  1  0  0  0  0  0  0  0  0  0
    5.0868   11.2975    4.2633 N   0  0  0  0  0  0  0  0  0  0  0  0
    4.7778   10.0081    3.7042 C   0  0  1  0  0  0  0  0  0  0  0  0
    5.6052    8.8870    4.2533 C   0  0  0  0  0  0  0  0  0  0  0  0
    5.1458    8.3432    5.5604 C   0  0  1  0  0  0  0  0  0  0  0  0
    4.8661    9.2844    6.5222 O   0  0  0  0  0  0  0  0  0  0  0  0
    4.1599    7.2247    5.4707 C   0  0  2  0  0  0  0  0  0  0  0  0
    4.6956    6.1258    4.8246 O   0  0  0  0  0  0  0  0  0  0  0  0
    2.8167    7.6358    4.9370 C   0  0  1  0  0  0  0  0  0  0  0  0
    2.2575    8.5528    5.8310 O   0  0  0  0  0  0  0  0  0  0  0  0
    3.0367    8.2469    3.5744 C   0  0  2  0  0  0  0  0  0  0  0  0
    4.0652    7.6274    2.8754 O   0  0  0  0  0  0  0  0  0  0  0  0
    3.3063    9.7199    3.6652 C   0  0  1  0  0  0  0  0  0  0  0  0
    2.6172   10.3545    4.6812 O   0  0  0  0  0  0  0  0  0  0  0  0
  2  1  1  1
  2  3  1  0
  3  4  1  0
  4  5  1  6
  4  6  1  0
  6  7  1  6
  6  8  1  0
  8  9  1  1
  8 10  1  0
 10 11  1  1
 12 11  1  1
 12 13  1  0
 13 14  1  0
 14 15  1  1
 14 16  1  0
 16 17  1  6
 16 18  1  0
 18 19  1  1
 18 20  1  0
 20 21  1  1
 20 22  1  0
 22 23  1  1
 10  2  1  0
 22 12  1  0
M  END
>  <docking_score>  (3) 
-4.3460000000000001

$$$$
