
     RDKit          3D

 18 17  0  0  0  0  0  0  0  0999 V2000
    3.5085    8.9531   12.4221 C   0  0  0  0  0  0  0  0  0  0  0  0
    4.3490    8.5447   11.2371 C   0  0  0  0  0  0  0  0  0  0  0  0
    5.6910    8.1016   11.7421 C   0  0  0  0  0  0  0  0  0  0  0  0
    4.5199    9.6480   10.2874 C   0  0  0  0  0  0  0  0  0  0  0  0
    4.1866    9.5232    9.0272 C   0  0  0  0  0  0  0  0  0  0  0  0
    4.3466   10.6022    8.0745 C   0  0  0  0  0  0  0  0  0  0  0  0
    4.4697   11.4938    7.2701 C   0  0  0  0  0  0  0  0  0  0  0  0
    4.6149   12.5636    6.3016 C   0  0  0  0  0  0  0  0  0  0  0  0
    6.0431   12.9088    5.9865 C   0  0  0  0  0  0  0  0  0  0  0  0
    6.2536   12.8673    4.5117 C   0  0  2  0  0  0  0  0  0  0  0  0
    5.7676   14.1593    3.9027 C   0  0  0  0  0  0  0  0  0  0  0  0
    5.5156   11.7756    3.9991 O   0  0  0  0  0  0  0  0  0  0  0  0
    7.6379   12.6069    4.1580 N   0  0  0  0  0  0  0  0  0  0  0  0
    8.0879   13.4929    3.1027 C   0  0  0  0  0  0  0  0  0  0  0  0
    9.4671   14.0055    3.3141 C   0  0  2  0  0  0  0  0  0  0  0  0
    9.5422   14.6958    4.6598 C   0  0  0  0  0  0  0  0  0  0  0  0
    9.9184   14.9151    2.3278 N   0  0  0  0  0  0  0  0  0  0  0  0
    9.4167   15.0939    1.2673 O   0  0  0  0  0  0  0  0  0  0  0  0
  1  2  1  0
  2  3  1  0
  2  4  1  0
  4  5  2  3
  5  6  1  0
  6  7  3  0
  7  8  1  0
  8  9  1  0
  9 10  1  0
 10 11  1  6
 10 12  1  0
 10 13  1  0
 13 14  1  0
 14 15  1  0
 15 16  1  1
 15 17  1  0
 17 18  2  0
M  END
>  <docking_score>  (1) 
-3.7799999999999998

$$$$

     RDKit          3D

 18 17  0  0  0  0  0  0  0  0999 V2000
   16.1374   -1.8339   -2.4779 C   0  0  0  0  0  0  0  0  0  0  0  0
   17.3499   -2.4917   -1.8659 C   0  0  0  0  0  0  0  0  0  0  0  0
   18.5649   -1.7094   -2.2712 C   0  0  0  0  0  0  0  0  0  0  0  0
   17.4913   -3.8832   -2.3044 C   0  0  0  0  0  0  0  0  0  0  0  0
   18.5217   -4.2762   -3.0105 C   0  0  0  0  0  0  0  0  0  0  0  0
   18.6795   -5.6466   -3.4515 C   0  0  0  0  0  0  0  0  0  0  0  0
   18.8270   -6.7859   -3.8220 C   0  0  0  0  0  0  0  0  0  0  0  0
   19.0079   -8.1543   -4.2674 C   0  0  0  0  0  0  0  0  0  0  0  0
   18.0120   -8.5932   -5.3036 C   0  0  0  0  0  0  0  0  0  0  0  0
   18.4908   -8.1946   -6.6574 C   0  0  2  0  0  0  0  0  0  0  0  0
   18.3571   -9.3666   -7.5980 C   0  0  0  0  0  0  0  0  0  0  0  0
   19.8468   -7.8108   -6.5420 O   0  0  0  0  0  0  0  0  0  0  0  0
   17.7941   -7.0275   -7.1688 N   0  0  0  0  0  0  0  0  0  0  0  0
   16.4667   -6.9137   -6.5977 C   0  0  0  0  0  0  0  0  0  0  0  0
   15.7910   -5.6324   -6.9319 C   0  0  2  0  0  0  0  0  0  0  0  0
   16.3228   -4.5379   -6.0306 C   0  0  0  0  0  0  0  0  0  0  0  0
   14.3811   -5.6569   -6.8087 N   0  0  0  0  0  0  0  0  0  0  0  0
   13.6073   -5.7283   -7.7057 O   0  0  0  0  0  0  0  0  0  0  0  0
  1  2  1  0
  2  3  1  0
  2  4  1  0
  4  5  2  3
  5  6  1  0
  6  7  3  0
  7  8  1  0
  8  9  1  0
  9 10  1  0
 10 11  1  6
 10 12  1  0
 10 13  1  0
 13 14  1  0
 14 15  1  0
 15 16  1  1
 15 17  1  0
 17 18  2  0
M  END
>  <docking_score>  (2) 
-3.7549999999999999

$$$$

     RDKit          3D

 18 17  0  0  0  0  0  0  0  0999 V2000
   19.5903   -1.7649   -1.6251 C   0  0  0  0  0  0  0  0  0  0  0  0
   19.4878   -3.2048   -1.1849 C   0  0  0  0  0  0  0  0  0  0  0  0
   20.7594   -3.9052   -1.5657 C   0  0  0  0  0  0  0  0  0  0  0  0
   18.3469   -3.8823   -1.8076 C   0  0  0  0  0  0  0  0  0  0  0  0
   18.4637   -4.5046   -2.9540 C   0  0  0  0  0  0  0  0  0  0  0  0
   17.3486   -5.1807   -3.5838 C   0  0  0  0  0  0  0  0  0  0  0  0
   16.4297   -5.7525   -4.1185 C   0  0  0  0  0  0  0  0  0  0  0  0
   15.3281   -6.4417   -4.7627 C   0  0  0  0  0  0  0  0  0  0  0  0
   14.2473   -5.5256   -5.2636 C   0  0  0  0  0  0  0  0  0  0  0  0
   14.4847   -5.2117   -6.7010 C   0  0  2  0  0  0  0  0  0  0  0  0
   14.9349   -3.7775   -6.8298 C   0  0  0  0  0  0  0  0  0  0  0  0
   13.2681   -5.4078   -7.3942 O   0  0  0  0  0  0  0  0  0  0  0  0
   15.4378   -6.1194   -7.3150 N   0  0  0  0  0  0  0  0  0  0  0  0
   16.4854   -5.3948   -8.0068 C   0  0  0  0  0  0  0  0  0  0  0  0
   17.6135   -6.2618   -8.4376 C   0  0  2  0  0  0  0  0  0  0  0  0
   17.7833   -7.3909   -7.4429 C   0  0  0  0  0  0  0  0  0  0  0  0
   18.8567   -5.5966   -8.5637 N   0  0  0  0  0  0  0  0  0  0  0  0
   19.8791   -5.9365   -8.0662 O   0  0  0  0  0  0  0  0  0  0  0  0
  1  2  1  0
  2  3  1  0
  2  4  1  0
  4  5  2  3
  5  6  1  0
  6  7  3  0
  7  8  1  0
  8  9  1  0
  9 10  1  0
 10 11  1  1
 10 12  1  0
 10 13  1  0
 13 14  1  0
 14 15  1  0
 15 16  1  1
 15 17  1  0
 17 18  2  0
M  END
>  <docking_score>  (3) 
-3.7130000000000001

$$$$
