
     RDKit          3D

 25 26  0  0  0  0  0  0  0  0999 V2000
   17.8143   -7.3626   -4.9336 C   0  0  0  0  0  0  0  0  0  0  0  0
   16.5326   -7.7366   -5.3549 O   0  0  0  0  0  0  0  0  0  0  0  0
   15.8903   -6.6717   -5.9593 C   0  0  0  0  0  3  0  0  0  0  0  0
   14.8449   -6.2730   -5.1296 O   0  0  0  0  0  0  0  0  0  0  0  0
   13.9160   -5.5877   -5.9113 C   0  0  2  0  0  0  0  0  0  0  0  0
   14.3939   -5.6101   -7.3487 C   0  0  0  0  0  0  0  0  0  0  0  0
   13.3089   -5.5985   -8.2204 O   0  0  0  0  0  0  0  0  0  0  0  0
   13.8273   -4.1558   -5.4377 C   0  0  0  0  0  3  0  0  0  0  0  0
   14.9355   -3.4104   -6.0312 N   0  0  0  0  0  0  0  0  0  0  0  0
   15.2492   -2.3407   -5.1057 C   0  0  0  0  0  3  0  0  0  0  0  0
   15.7692   -2.8680   -3.7896 C   0  0  1  0  0  0  0  0  0  0  0  0
   16.9216   -3.8164   -3.9483 C   0  0  1  0  0  0  0  0  0  0  0  0
   18.1094   -3.1602   -4.5593 C   0  0  0  0  0  0  0  0  0  0  0  0
   18.6307   -3.9266   -5.3532 O   0  0  0  0  0  0  0  0  0  0  0  0
   17.2180   -4.4444   -2.6229 C   0  0  0  0  0  3  0  0  0  0  0  0
   18.5524   -4.6617   -2.3871 O   0  0  0  0  0  0  0  0  0  0  0  0
   18.9550   -3.8251   -1.4548 O   0  0  0  0  0  0  0  0  0  0  0  0
   19.4447   -2.6929   -2.1434 C   0  0  0  0  0  0  0  0  0  0  0  0
   18.3697   -1.6394   -2.2682 C   0  0  2  0  0  0  0  0  0  0  0  0
   17.0032   -2.1643   -1.9736 C   0  0  0  0  0  0  0  0  0  0  0  0
   16.1525   -1.7877   -3.0085 O   0  0  0  0  0  0  0  0  0  0  0  0
   18.4638   -1.0455   -3.5027 O   0  0  0  0  0  0  0  0  0  0  0  0
   18.8620   -1.8848   -4.5178 C   0  0  1  0  0  0  0  0  0  0  0  0
   20.2169   -2.2176   -4.3529 O   0  0  0  0  0  0  0  0  0  0  0  0
   20.9703   -1.2710   -5.0310 C   0  0  0  0  0  2  0  0  0  0  0  0
  1  2  1  0
  2  3  1  0
  3  4  1  0
  4  5  1  0
  5  6  1  6
  6  7  1  0
  5  8  1  0
  8  9  1  0
  9 10  1  0
 11 10  1  6
 11 12  1  0
 12 13  1  0
 13 14  2  0
 12 15  1  1
 15 16  1  0
 16 17  1  0
 17 18  1  0
 19 18  1  6
 19 20  1  0
 20 21  1  0
 19 22  1  0
 22 23  1  0
 23 24  1  1
 24 25  1  0
 21 11  1  0
 23 13  1  0
M  RAD  5   3   2   8   2  10   2  15   2  25   3
M  END
>  <docking_score>  (1) 
-4.2030000000000003

$$$$

     RDKit          3D

 25 26  0  0  0  0  0  0  0  0999 V2000
   20.3841   -6.2041   -4.5692 C   0  0  0  0  0  0  0  0  0  0  0  0
   19.6942   -7.0219   -3.6662 O   0  0  0  0  0  0  0  0  0  0  0  0
   19.4053   -8.2452   -4.2423 C   0  0  0  0  0  3  0  0  0  0  0  0
   18.8189   -8.0083   -5.4834 O   0  0  0  0  0  0  0  0  0  0  0  0
   17.4931   -8.4344   -5.4184 C   0  0  2  0  0  0  0  0  0  0  0  0
   17.3750   -9.7411   -6.1758 C   0  0  0  0  0  0  0  0  0  0  0  0
   17.9987   -9.6406   -7.4160 O   0  0  0  0  0  0  0  0  0  0  0  0
   16.6054   -7.3993   -6.0687 C   0  0  0  0  0  3  0  0  0  0  0  0
   16.8383   -6.1181   -5.4052 N   0  0  0  0  0  0  0  0  0  0  0  0
   15.5652   -5.7112   -4.8461 C   0  0  0  0  0  3  0  0  0  0  0  0
   15.0765   -4.4127   -5.4426 C   0  0  1  0  0  0  0  0  0  0  0  0
   15.0479   -3.2835   -4.4541 C   0  0  1  0  0  0  0  0  0  0  0  0
   16.4053   -2.9485   -3.9443 C   0  0  0  0  0  0  0  0  0  0  0  0
   16.3402   -2.7088   -2.7494 O   0  0  0  0  0  0  0  0  0  0  0  0
   14.3516   -2.1138   -5.0752 C   0  0  0  0  0  3  0  0  0  0  0  0
   14.8761   -0.8945   -4.7265 O   0  0  0  0  0  0  0  0  0  0  0  0
   15.4814   -0.3827   -5.7766 O   0  0  0  0  0  0  0  0  0  0  0  0
   16.8303   -0.7906   -5.6764 C   0  0  0  0  0  0  0  0  0  0  0  0
   17.0654   -2.0525   -6.4723 C   0  0  2  0  0  0  0  0  0  0  0  0
   15.7985   -2.7420   -6.8581 C   0  0  0  0  0  0  0  0  0  0  0  0
   15.9019   -4.0850   -6.5082 O   0  0  0  0  0  0  0  0  0  0  0  0
   17.9316   -2.8641   -5.7819 O   0  0  0  0  0  0  0  0  0  0  0  0
   17.8040   -2.8118   -4.4128 C   0  0  1  0  0  0  0  0  0  0  0  0
   18.2716   -1.5740   -3.9408 O   0  0  0  0  0  0  0  0  0  0  0  0
   19.5052   -1.7878   -3.3440 C   0  0  0  0  0  2  0  0  0  0  0  0
  1  2  1  0
  2  3  1  0
  3  4  1  0
  4  5  1  0
  5  6  1  6
  6  7  1  0
  5  8  1  0
  8  9  1  0
  9 10  1  0
 11 10  1  1
 11 12  1  0
 12 13  1  0
 13 14  2  0
 12 15  1  6
 15 16  1  0
 16 17  1  0
 17 18  1  0
 19 18  1  1
 19 20  1  0
 20 21  1  0
 19 22  1  0
 22 23  1  0
 23 24  1  6
 24 25  1  0
 21 11  1  0
 23 13  1  0
M  RAD  5   3   2   8   2  10   2  15   2  25   3
M  END
>  <docking_score>  (2) 
-3.613

$$$$

     RDKit          3D

 25 26  0  0  0  0  0  0  0  0999 V2000
   13.8952   -5.7090   -6.1926 C   0  0  0  0  0  0  0  0  0  0  0  0
   14.4069   -6.4198   -5.1004 O   0  0  0  0  0  0  0  0  0  0  0  0
   15.7825   -6.2935   -5.0404 C   0  0  0  0  0  3  0  0  0  0  0  0
   16.2680   -6.2550   -6.3455 O   0  0  0  0  0  0  0  0  0  0  0  0
   17.5374   -6.8314   -6.3467 C   0  0  2  0  0  0  0  0  0  0  0  0
   17.3849   -8.3202   -6.1120 C   0  0  0  0  0  0  0  0  0  0  0  0
   18.2270   -8.7378   -5.0854 O   0  0  0  0  0  0  0  0  0  0  0  0
   18.3571   -6.2318   -5.2282 C   0  0  0  0  0  3  0  0  0  0  0  0
   19.5974   -5.7121   -5.8005 N   0  0  0  0  0  0  0  0  0  0  0  0
   19.2124   -4.6649   -6.7247 C   0  0  0  0  0  3  0  0  0  0  0  0
   19.8874   -3.3528   -6.4030 C   0  0  1  0  0  0  0  0  0  0  0  0
   18.9244   -2.2077   -6.2844 C   0  0  1  0  0  0  0  0  0  0  0  0
   17.9645   -2.3946   -5.1626 C   0  0  0  0  0  0  0  0  0  0  0  0
   16.8566   -2.0207   -5.5123 O   0  0  0  0  0  0  0  0  0  0  0  0
   19.6992   -0.9316   -6.1841 C   0  0  0  0  0  3  0  0  0  0  0  0
   19.1417    0.0031   -5.3481 O   0  0  0  0  0  0  0  0  0  0  0  0
   19.8969    0.1102   -4.2761 O   0  0  0  0  0  0  0  0  0  0  0  0
   19.3544   -0.7930   -3.3349 C   0  0  0  0  0  0  0  0  0  0  0  0
   20.0711   -2.1210   -3.3971 C   0  0  2  0  0  0  0  0  0  0  0  0
   20.8978   -2.2792   -4.6304 C   0  0  0  0  0  0  0  0  0  0  0  0
   20.5887   -3.5033   -5.2157 O   0  0  0  0  0  0  0  0  0  0  0  0
   19.1580   -3.1326   -3.2275 O   0  0  0  0  0  0  0  0  0  0  0  0
   17.9159   -2.8848   -3.7655 C   0  0  1  0  0  0  0  0  0  0  0  0
   17.2616   -1.8970   -3.0107 O   0  0  0  0  0  0  0  0  0  0  0  0
   16.5182   -2.5373   -2.0303 C   0  0  0  0  0  2  0  0  0  0  0  0
  1  2  1  0
  2  3  1  0
  3  4  1  0
  4  5  1  0
  5  6  1  1
  6  7  1  0
  5  8  1  0
  8  9  1  0
  9 10  1  0
 11 10  1  1
 11 12  1  0
 12 13  1  0
 13 14  2  0
 12 15  1  1
 15 16  1  0
 16 17  1  0
 17 18  1  0
 19 18  1  6
 19 20  1  0
 20 21  1  0
 19 22  1  0
 22 23  1  0
 23 24  1  1
 24 25  1  0
 21 11  1  0
 23 13  1  0
M  RAD  5   3   2   8   2  10   2  15   2  25   3
M  END
>  <docking_score>  (3) 
-3.3039999999999998

$$$$
