
     RDKit          3D

 22 22  0  0  0  0  0  0  0  0999 V2000
   16.2644   -2.4372   -8.3877 C   0  0  0  0  0  0  0  0  0  0  0  0
   15.0710   -2.9919   -7.9665 O   0  0  0  0  0  0  0  0  0  0  0  0
   15.1761   -3.3487   -6.5870 C   0  0  0  0  0  3  0  0  0  0  0  0
   15.6495   -2.1563   -5.9403 O   0  0  0  0  0  0  0  0  0  0  0  0
   15.0475   -2.1935   -4.7119 C   0  0  2  0  0  0  0  0  0  0  0  0
   13.9122   -1.2084   -4.6817 C   0  0  0  0  0  0  0  0  0  0  0  0
   14.1631   -0.0395   -5.5869 C   0  0  0  0  0  2  0  0  0  0  0  0
   16.0578   -1.8152   -3.5883 C   0  0  1  0  0  0  0  0  0  0  0  0
   16.4083   -2.8158   -2.7903 O   0  0  0  0  0  0  0  0  0  0  0  0
   16.9413   -3.9710   -3.2840 C   0  0  0  0  0  3  0  0  0  0  0  0
   18.3965   -3.9619   -2.7844 C   0  0  2  0  0  0  0  0  0  0  0  0
   19.0735   -2.9293   -3.5921 C   0  0  0  0  0  0  0  0  0  0  0  0
   20.2129   -3.2445   -3.9744 O   0  0  0  0  0  0  0  0  0  0  0  0
   19.0021   -5.3071   -2.7987 C   0  0  0  0  0  0  0  0  0  0  0  0
   17.8999   -6.2583   -3.2850 C   0  0  0  0  0  3  0  0  0  0  0  0
   18.2341   -6.7703   -4.5198 O   0  0  0  0  0  0  0  0  0  0  0  0
   17.2135   -7.5024   -5.0695 C   0  0  0  0  0  3  0  0  0  0  0  0
   16.2770   -6.6646   -5.6732 O   0  0  0  0  0  0  0  0  0  0  0  0
   15.0815   -6.6844   -4.9722 C   0  0  0  0  0  3  0  0  0  0  0  0
   14.8322   -7.9942   -4.5766 O   0  0  0  0  0  0  0  0  0  0  0  0
   17.2631   -1.3502   -4.4324 C   0  0  0  0  0  3  0  0  0  0  0  0
   18.4887   -1.6937   -3.8672 O   0  0  0  0  0  0  0  0  0  0  0  0
  1  2  1  0
  2  3  1  0
  3  4  1  0
  4  5  1  0
  5  6  1  6
  6  7  1  0
  5  8  1  0
  8  9  1  0
  9 10  1  0
 10 11  1  0
 11 12  1  0
 12 13  2  0
 11 14  1  6
 14 15  1  0
 15 16  1  0
 16 17  1  0
 17 18  1  0
 18 19  1  0
 19 20  1  0
  8 21  1  6
 21 22  1  0
 22 12  1  0
M  RAD  7   3   2   7   3  10   2  15   2  17   2  19   2  21   2
M  END
>  <docking_score>  (1) 
-3.681

$$$$

     RDKit          3D

 22 22  0  0  0  0  0  0  0  0999 V2000
   16.4294   -6.1426   -7.7824 C   0  0  0  0  0  0  0  0  0  0  0  0
   16.6131   -5.8556   -6.4434 O   0  0  0  0  0  0  0  0  0  0  0  0
   16.4522   -7.0506   -5.6770 C   0  0  0  0  0  3  0  0  0  0  0  0
   17.0329   -6.7418   -4.3996 O   0  0  0  0  0  0  0  0  0  0  0  0
   18.3368   -6.4526   -4.6982 C   0  0  2  0  0  0  0  0  0  0  0  0
   19.0935   -7.7320   -4.9234 C   0  0  0  0  0  0  0  0  0  0  0  0
   19.7518   -8.2197   -3.6674 C   0  0  0  0  0  2  0  0  0  0  0  0
   19.0144   -5.6790   -3.5284 C   0  0  1  0  0  0  0  0  0  0  0  0
   19.6742   -4.5853   -3.8883 O   0  0  0  0  0  0  0  0  0  0  0  0
   19.0683   -3.5825   -4.5879 C   0  0  0  0  0  3  0  0  0  0  0  0
   19.0195   -2.4049   -3.5989 C   0  0  2  0  0  0  0  0  0  0  0  0
   17.9854   -2.7740   -2.6132 C   0  0  0  0  0  0  0  0  0  0  0  0
   17.2367   -1.8389   -2.2829 O   0  0  0  0  0  0  0  0  0  0  0  0
   18.8430   -1.1082   -4.2801 C   0  0  0  0  0  0  0  0  0  0  0  0
   18.0642   -1.4130   -5.5672 C   0  0  0  0  0  3  0  0  0  0  0  0
   17.0508   -0.4938   -5.7304 O   0  0  0  0  0  0  0  0  0  0  0  0
   15.8104   -1.0734   -5.6588 C   0  0  0  0  0  3  0  0  0  0  0  0
   15.8610   -2.3981   -6.0902 O   0  0  0  0  0  0  0  0  0  0  0  0
   14.7863   -3.1156   -5.5889 C   0  0  0  0  0  3  0  0  0  0  0  0
   15.1611   -3.6605   -4.3655 O   0  0  0  0  0  0  0  0  0  0  0  0
   17.7811   -5.3099   -2.6775 C   0  0  0  0  0  3  0  0  0  0  0  0
   17.8882   -4.0577   -2.0776 O   0  0  0  0  0  0  0  0  0  0  0  0
  1  2  1  0
  2  3  1  0
  3  4  1  0
  4  5  1  0
  5  6  1  1
  6  7  1  0
  5  8  1  0
  8  9  1  0
  9 10  1  0
 10 11  1  0
 11 12  1  0
 12 13  2  0
 11 14  1  6
 14 15  1  0
 15 16  1  0
 16 17  1  0
 17 18  1  0
 18 19  1  0
 19 20  1  0
  8 21  1  1
 21 22  1  0
 22 12  1  0
M  RAD  7   3   2   7   3  10   2  15   2  17   2  19   2  21   2
M  END
>  <docking_score>  (2) 
-3.6509999999999998

$$$$

     RDKit          3D

 22 22  0  0  0  0  0  0  0  0999 V2000
   13.6124   -5.4675   -7.2909 C   0  0  0  0  0  0  0  0  0  0  0  0
   14.2532   -5.1746   -6.1023 O   0  0  0  0  0  0  0  0  0  0  0  0
   14.2788   -3.7584   -5.9152 C   0  0  0  0  0  3  0  0  0  0  0  0
   15.4252   -3.5247   -5.0813 O   0  0  0  0  0  0  0  0  0  0  0  0
   15.0372   -2.4839   -4.2819 C   0  0  2  0  0  0  0  0  0  0  0  0
   14.4205   -1.4060   -5.1293 C   0  0  0  0  0  0  0  0  0  0  0  0
   13.7489   -0.3561   -4.2954 C   0  0  0  0  0  2  0  0  0  0  0  0
   16.2589   -1.8792   -3.5281 C   0  0  1  0  0  0  0  0  0  0  0  0
   16.8238   -2.6863   -2.6391 O   0  0  0  0  0  0  0  0  0  0  0  0
   17.2800   -3.9248   -2.9862 C   0  0  0  0  0  3  0  0  0  0  0  0
   18.8088   -3.8187   -2.8493 C   0  0  2  0  0  0  0  0  0  0  0  0
   19.2400   -2.9899   -3.9914 C   0  0  0  0  0  0  0  0  0  0  0  0
   20.2755   -3.3887   -4.5506 O   0  0  0  0  0  0  0  0  0  0  0  0
   19.4524   -5.1397   -2.7177 C   0  0  0  0  0  0  0  0  0  0  0  0
   18.3764   -6.1695   -3.0887 C   0  0  0  0  0  3  0  0  0  0  0  0
   18.8198   -6.9564   -4.1292 O   0  0  0  0  0  0  0  0  0  0  0  0
   17.8050   -7.3060   -4.9821 C   0  0  0  0  0  3  0  0  0  0  0  0
   17.3403   -6.1904   -5.6769 O   0  0  0  0  0  0  0  0  0  0  0  0
   17.5176   -6.3571   -7.0414 C   0  0  0  0  0  3  0  0  0  0  0  0
   17.3524   -7.7056   -7.3388 O   0  0  0  0  0  0  0  0  0  0  0  0
   17.2202   -1.6165   -4.7063 C   0  0  0  0  0  3  0  0  0  0  0  0
   18.5556   -1.8387   -4.3795 O   0  0  0  0  0  0  0  0  0  0  0  0
  1  2  1  0
  2  3  1  0
  3  4  1  0
  4  5  1  0
  5  6  1  6
  6  7  1  0
  5  8  1  0
  8  9  1  0
  9 10  1  0
 10 11  1  0
 11 12  1  0
 12 13  2  0
 11 14  1  6
 14 15  1  0
 15 16  1  0
 16 17  1  0
 17 18  1  0
 18 19  1  0
 19 20  1  0
  8 21  1  6
 21 22  1  0
 22 12  1  0
M  RAD  7   3   2   7   3  10   2  15   2  17   2  19   2  21   2
M  END
>  <docking_score>  (3) 
-3.5539999999999998

$$$$
