
     RDKit          3D

 26 26  0  0  0  0  0  0  0  0999 V2000
   18.5437   -6.4350   -6.9671 C   0  0  0  0  0  0  0  0  0  0  0  0
   18.2509   -7.8621   -6.5892 C   0  0  0  0  0  0  0  0  0  0  0  0
   18.3868   -8.8280   -7.7205 C   0  0  0  0  0  0  0  0  0  0  0  0
   16.9940   -8.0126   -5.7928 C   0  0  0  0  0  0  0  0  0  0  0  0
   16.7980   -6.8220   -4.9098 C   0  0  0  0  0  0  0  0  0  0  0  0
   15.3426   -6.4093   -4.7898 C   0  0  0  0  0  0  0  0  0  0  0  0
   15.0470   -5.4642   -5.9187 C   0  0  1  0  0  0  0  0  0  0  0  0
   13.5807   -5.3560   -6.2129 C   0  0  0  0  0  0  0  0  0  0  0  0
   15.6961   -4.1147   -5.7828 C   0  0  0  0  0  3  0  0  0  0  0  0
   14.9942   -3.2467   -4.7929 C   0  0  0  0  0  0  0  0  0  0  0  0
   15.8936   -2.5831   -3.8123 C   0  0  0  0  0  0  0  0  0  0  0  0
   16.7712   -3.4855   -3.0175 C   0  0  2  0  0  0  0  0  0  0  0  0
   16.3581   -3.5665   -1.5629 C   0  0  0  0  0  0  0  0  0  0  0  0
   18.2439   -3.1835   -3.1172 C   0  0  1  0  0  0  0  0  0  0  0  0
   18.5928   -1.7747   -2.7877 C   0  0  0  0  0  0  0  0  0  0  0  0
   19.7045   -1.2249   -3.6629 C   0  0  2  0  0  0  0  0  0  0  0  0
   20.6697   -0.4103   -2.8299 C   0  0  0  0  0  0  0  0  0  0  0  0
   19.1622   -0.3294   -4.7514 C   0  0  0  0  0  0  0  0  0  0  0  0
   19.8684   -0.6661   -6.0697 C   0  0  0  0  0  3  0  0  0  0  0  0
   20.7116   -1.7594   -5.8995 O   0  0  0  0  0  0  0  0  0  0  0  0
   20.0987   -2.9636   -6.1839 C   0  0  0  0  0  0  0  0  0  0  0  0
   19.5910   -3.6019   -5.0768 O   0  0  0  0  0  0  0  0  0  0  0  0
   20.4979   -4.4227   -4.4362 C   0  0  0  0  0  0  0  0  0  0  0  0
   20.5160   -4.0694   -2.9688 C   0  0  0  0  0  0  0  0  0  0  0  0
   19.1089   -4.1404   -2.3686 C   0  0  2  0  0  0  0  0  0  0  0  0
   18.6619   -5.4556   -2.4452 O   0  0  0  0  0  0  0  0  0  0  0  0
  1  2  1  0
  2  3  1  0
  2  4  1  0
  4  5  1  0
  5  6  1  0
  6  7  1  0
  7  8  1  1
  7  9  1  0
  9 10  1  0
 10 11  1  0
 11 12  1  0
 12 13  1  1
 12 14  1  0
 14 15  1  1
 15 16  1  0
 16 17  1  1
 16 18  1  0
 18 19  1  0
 19 20  1  0
 20 21  1  0
 21 22  1  0
 22 23  1  0
 23 24  1  0
 24 25  1  0
 25 26  1  6
 25 14  1  0
M  RAD  2   9   2  19   2
M  END
>  <docking_score>  (1) 
-4.2169999999999996

$$$$

     RDKit          3D

 26 26  0  0  0  0  0  0  0  0999 V2000
   20.5246   -0.0516   -1.4384 C   0  0  0  0  0  0  0  0  0  0  0  0
   19.6962   -1.3017   -1.3111 C   0  0  0  0  0  0  0  0  0  0  0  0
   20.4715   -2.4992   -0.8679 C   0  0  0  0  0  0  0  0  0  0  0  0
   18.8074   -1.5398   -2.4901 C   0  0  0  0  0  0  0  0  0  0  0  0
   17.3788   -1.3117   -2.1125 C   0  0  0  0  0  0  0  0  0  0  0  0
   16.4385   -2.3418   -2.7107 C   0  0  0  0  0  0  0  0  0  0  0  0
   16.9395   -3.6986   -2.3065 C   0  0  1  0  0  0  0  0  0  0  0  0
   16.2184   -4.2488   -1.1126 C   0  0  0  0  0  0  0  0  0  0  0  0
   17.0086   -4.6937   -3.4317 C   0  0  0  0  0  3  0  0  0  0  0  0
   18.0072   -5.7715   -3.1728 C   0  0  0  0  0  0  0  0  0  0  0  0
   19.3663   -5.2781   -2.8254 C   0  0  0  0  0  0  0  0  0  0  0  0
   20.3198   -5.1395   -3.9602 C   0  0  2  0  0  0  0  0  0  0  0  0
   20.5371   -3.6966   -4.3651 C   0  0  0  0  0  0  0  0  0  0  0  0
   19.9838   -5.9684   -5.1726 C   0  0  1  0  0  0  0  0  0  0  0  0
   19.7548   -5.1662   -6.4050 C   0  0  0  0  0  0  0  0  0  0  0  0
   18.6426   -5.7272   -7.2727 C   0  0  2  0  0  0  0  0  0  0  0  0
   19.0372   -5.6640   -8.7319 C   0  0  0  0  0  0  0  0  0  0  0  0
   17.3609   -4.9464   -7.1052 C   0  0  0  0  0  0  0  0  0  0  0  0
   16.1909   -5.9303   -6.9907 C   0  0  0  0  0  3  0  0  0  0  0  0
   16.6622   -7.2389   -6.9646 O   0  0  0  0  0  0  0  0  0  0  0  0
   16.8844   -7.7074   -5.6849 C   0  0  0  0  0  0  0  0  0  0  0  0
   18.1882   -7.5797   -5.2667 O   0  0  0  0  0  0  0  0  0  0  0  0
   18.9935   -8.6498   -5.6027 C   0  0  0  0  0  0  0  0  0  0  0  0
   20.2295   -8.1258   -6.2927 C   0  0  0  0  0  0  0  0  0  0  0  0
   20.9421   -7.0826   -5.4271 C   0  0  2  0  0  0  0  0  0  0  0  0
   21.3818   -7.7017   -4.2614 O   0  0  0  0  0  0  0  0  0  0  0  0
  1  2  1  0
  2  3  1  0
  2  4  1  0
  4  5  1  0
  5  6  1  0
  6  7  1  0
  7  8  1  1
  7  9  1  0
  9 10  1  0
 10 11  1  0
 11 12  1  0
 12 13  1  6
 12 14  1  0
 14 15  1  6
 15 16  1  0
 16 17  1  6
 16 18  1  0
 18 19  1  0
 19 20  1  0
 20 21  1  0
 21 22  1  0
 22 23  1  0
 23 24  1  0
 24 25  1  0
 25 26  1  1
 25 14  1  0
M  RAD  2   9   2  19   2
M  END
>  <docking_score>  (2) 
-3.8239999999999998

$$$$

     RDKit          3D

 26 26  0  0  0  0  0  0  0  0999 V2000
   19.0968   -3.4262   -1.5263 C   0  0  0  0  0  0  0  0  0  0  0  0
   19.5951   -2.1357   -2.1194 C   0  0  0  0  0  0  0  0  0  0  0  0
   20.3889   -1.2996   -1.1695 C   0  0  0  0  0  0  0  0  0  0  0  0
   18.5395   -1.3884   -2.8704 C   0  0  0  0  0  0  0  0  0  0  0  0
   17.3269   -2.2455   -3.0446 C   0  0  0  0  0  0  0  0  0  0  0  0
   16.0879   -1.6536   -2.3983 C   0  0  0  0  0  0  0  0  0  0  0  0
   15.0949   -1.3815   -3.4914 C   0  0  1  0  0  0  0  0  0  0  0  0
   14.3777   -0.0774   -3.3091 C   0  0  0  0  0  0  0  0  0  0  0  0
   15.6475   -1.5317   -4.8817 C   0  0  0  0  0  3  0  0  0  0  0  0
   14.5827   -1.8240   -5.8850 C   0  0  0  0  0  0  0  0  0  0  0  0
   14.8805   -2.9749   -6.7781 C   0  0  0  0  0  0  0  0  0  0  0  0
   16.3117   -3.1662   -7.1405 C   0  0  2  0  0  0  0  0  0  0  0  0
   16.5812   -2.9023   -8.6072 C   0  0  0  0  0  0  0  0  0  0  0  0
   16.8915   -4.4987   -6.7432 C   0  0  1  0  0  0  0  0  0  0  0  0
   17.3824   -4.5467   -5.3391 C   0  0  0  0  0  0  0  0  0  0  0  0
   18.6494   -5.3689   -5.1875 C   0  0  2  0  0  0  0  0  0  0  0  0
   18.5738   -6.2179   -3.9376 C   0  0  0  0  0  0  0  0  0  0  0  0
   19.8717   -4.4890   -5.0766 C   0  0  0  0  0  0  0  0  0  0  0  0
   20.9840   -5.0704   -5.9569 C   0  0  0  0  0  3  0  0  0  0  0  0
   20.5089   -6.1627   -6.6756 O   0  0  0  0  0  0  0  0  0  0  0  0
   20.0171   -5.8185   -7.9190 C   0  0  0  0  0  0  0  0  0  0  0  0
   18.6552   -5.6297   -7.9432 O   0  0  0  0  0  0  0  0  0  0  0  0
   17.9321   -6.7825   -8.1777 C   0  0  0  0  0  0  0  0  0  0  0  0
   16.8743   -6.9144   -7.1090 C   0  0  0  0  0  0  0  0  0  0  0  0
   16.0015   -5.6578   -7.0411 C   0  0  2  0  0  0  0  0  0  0  0  0
   15.3202   -5.5275   -8.2471 O   0  0  0  0  0  0  0  0  0  0  0  0
  1  2  1  0
  2  3  1  0
  2  4  1  0
  4  5  1  0
  5  6  1  0
  6  7  1  0
  7  8  1  1
  7  9  1  0
  9 10  1  0
 10 11  1  0
 11 12  1  0
 12 13  1  6
 12 14  1  0
 14 15  1  1
 15 16  1  0
 16 17  1  1
 16 18  1  0
 18 19  1  0
 19 20  1  0
 20 21  1  0
 21 22  1  0
 22 23  1  0
 23 24  1  0
 24 25  1  0
 25 26  1  6
 25 14  1  0
M  RAD  2   9   2  19   2
M  END
>  <docking_score>  (3) 
-3.573

$$$$
