
     RDKit          3D

 21 21  0  0  0  0  0  0  0  0999 V2000
   14.5935   -1.5734   -4.7224 C   0  0  0  0  0  0  0  0  0  0  0  0
   14.7755   -2.8907   -4.2426 O   0  0  0  0  0  0  0  0  0  0  0  0
   15.9602   -3.1322   -3.5296 C   0  0  0  0  0  0  0  0  0  0  0  0
   16.5884   -2.1326   -2.7965 C   0  0  0  0  0  0  0  0  0  0  0  0
   17.7529   -2.4020   -2.1050 C   0  0  0  0  0  0  0  0  0  0  0  0
   18.2574   -3.6849   -2.1720 C   0  0  0  0  0  0  0  0  0  0  0  0
   17.6230   -4.6821   -2.9083 C   0  0  0  0  0  0  0  0  0  0  0  0
   16.4521   -4.4119   -3.6041 C   0  0  0  0  0  0  0  0  0  0  0  0
   15.7477   -5.4480   -4.4010 C   0  0  0  0  0  0  0  0  0  0  0  0
   16.2859   -5.5972   -5.7956 C   0  0  2  0  0  0  0  0  0  0  0  0
   15.1173   -5.2820   -6.7406 C   0  0  0  0  0  0  0  0  0  0  0  0
   15.6915   -5.2647   -8.1109 C   0  0  0  0  0  0  0  0  0  0  0  0
   16.0619   -4.1452   -8.7249 C   0  0  0  0  0  0  0  0  0  0  0  0
   15.9030   -2.8376   -8.0253 C   0  0  0  0  0  0  0  0  0  0  0  0
   17.2458   -2.1182   -7.9302 C   0  0  0  0  0  0  0  0  0  0  0  0
   17.8250   -2.3437   -6.5593 C   0  0  0  0  0  0  0  0  0  0  0  0
   18.1810   -1.0034   -5.9243 C   0  0  0  0  0  0  0  0  0  0  0  0
   16.6070   -7.0355   -6.0059 C   0  0  0  0  0  0  0  0  0  0  0  0
   17.7086   -7.4677   -6.4711 N   0  0  0  0  0  0  0  0  0  0  0  0
   17.7981   -8.9175   -6.5902 C   0  0  0  0  0  0  0  0  0  0  0  0
   16.7106   -9.5785   -5.3395 Cl  0  0  0  0  0  0  0  0  0  0  0  0
  1  2  1  0
  2  3  1  0
  3  4  2  0
  4  5  1  0
  5  6  2  0
  6  7  1  0
  7  8  2  0
  8  9  1  0
 10  9  1  1
 10 11  1  0
 11 12  1  0
 12 13  2  3
 13 14  1  0
 14 15  1  0
 15 16  1  0
 16 17  1  0
 10 18  1  0
 18 19  2  3
 19 20  1  0
 20 21  1  0
  8  3  1  0
M  END
>  <docking_score>  (1) 
-4.1840000000000002

$$$$

     RDKit          3D

 21 21  0  0  0  0  0  0  0  0999 V2000
   19.4563   -3.0848   -1.5384 C   0  0  0  0  0  0  0  0  0  0  0  0
   18.4080   -2.7309   -2.4182 O   0  0  0  0  0  0  0  0  0  0  0  0
   18.7861   -2.0775   -3.6015 C   0  0  0  0  0  0  0  0  0  0  0  0
   19.4253   -0.8435   -3.5825 C   0  0  0  0  0  0  0  0  0  0  0  0
   19.7852   -0.2262   -4.7640 C   0  0  0  0  0  0  0  0  0  0  0  0
   19.4882   -0.8764   -5.9446 C   0  0  0  0  0  0  0  0  0  0  0  0
   18.8477   -2.1128   -5.9569 C   0  0  0  0  0  0  0  0  0  0  0  0
   18.4852   -2.7340   -4.7692 C   0  0  0  0  0  0  0  0  0  0  0  0
   17.8000   -4.0510   -4.7416 C   0  0  0  0  0  0  0  0  0  0  0  0
   17.1322   -4.4041   -6.0400 C   0  0  2  0  0  0  0  0  0  0  0  0
   15.6877   -3.8950   -5.9300 C   0  0  0  0  0  0  0  0  0  0  0  0
   15.4201   -3.1465   -7.1852 C   0  0  0  0  0  0  0  0  0  0  0  0
   15.2960   -1.8234   -7.2250 C   0  0  0  0  0  0  0  0  0  0  0  0
   15.4278   -1.0359   -5.9653 C   0  0  0  0  0  0  0  0  0  0  0  0
   14.0608   -0.5386   -5.5029 C   0  0  0  0  0  0  0  0  0  0  0  0
   14.0636   -0.4267   -4.0019 C   0  0  0  0  0  0  0  0  0  0  0  0
   15.1187   -1.3610   -3.4184 C   0  0  0  0  0  0  0  0  0  0  0  0
   17.0396   -5.8881   -6.1131 C   0  0  0  0  0  0  0  0  0  0  0  0
   16.8454   -6.6485   -5.1128 N   0  0  0  0  0  0  0  0  0  0  0  0
   16.7916   -8.0713   -5.4243 C   0  0  0  0  0  0  0  0  0  0  0  0
   17.9666   -8.3274   -6.7425 Cl  0  0  0  0  0  0  0  0  0  0  0  0
  1  2  1  0
  2  3  1  0
  3  4  2  0
  4  5  1  0
  5  6  2  0
  6  7  1  0
  7  8  2  0
  8  9  1  0
 10  9  1  1
 10 11  1  0
 11 12  1  0
 12 13  2  3
 13 14  1  0
 14 15  1  0
 15 16  1  0
 16 17  1  0
 10 18  1  0
 18 19  2  3
 19 20  1  0
 20 21  1  0
  8  3  1  0
M  END
>  <docking_score>  (2) 
-3.7989999999999999

$$$$

     RDKit          3D

 21 21  0  0  0  0  0  0  0  0999 V2000
   16.1753   -4.9396   -1.6698 C   0  0  0  0  0  0  0  0  0  0  0  0
   17.1307   -4.6043   -2.6564 O   0  0  0  0  0  0  0  0  0  0  0  0
   17.9834   -3.5313   -2.3538 C   0  0  0  0  0  0  0  0  0  0  0  0
   19.1151   -3.6975   -1.5644 C   0  0  0  0  0  0  0  0  0  0  0  0
   19.9347   -2.6219   -1.2850 C   0  0  0  0  0  0  0  0  0  0  0  0
   19.5877   -1.3956   -1.8148 C   0  0  0  0  0  0  0  0  0  0  0  0
   18.4525   -1.2357   -2.6052 C   0  0  0  0  0  0  0  0  0  0  0  0
   17.6277   -2.3168   -2.8863 C   0  0  0  0  0  0  0  0  0  0  0  0
   16.4086   -2.1858   -3.7237 C   0  0  0  0  0  0  0  0  0  0  0  0
   16.7032   -1.8675   -5.1619 C   0  0  2  0  0  0  0  0  0  0  0  0
   15.3894   -2.0868   -5.9259 C   0  0  0  0  0  0  0  0  0  0  0  0
   15.7337   -1.9953   -7.3684 C   0  0  0  0  0  0  0  0  0  0  0  0
   15.4448   -2.9545   -8.2424 C   0  0  0  0  0  0  0  0  0  0  0  0
   14.7439   -4.1856   -7.7758 C   0  0  0  0  0  0  0  0  0  0  0  0
   15.7209   -5.3554   -7.6932 C   0  0  0  0  0  0  0  0  0  0  0  0
   15.6240   -5.9774   -6.3260 C   0  0  0  0  0  0  0  0  0  0  0  0
   14.2608   -5.6683   -5.7156 C   0  0  0  0  0  0  0  0  0  0  0  0
   17.6498   -2.8982   -5.6694 C   0  0  0  0  0  0  0  0  0  0  0  0
   18.8217   -2.6526   -6.0972 N   0  0  0  0  0  0  0  0  0  0  0  0
   19.5691   -3.8207   -6.5455 C   0  0  0  0  0  0  0  0  0  0  0  0
   19.0757   -5.1578   -5.4718 Cl  0  0  0  0  0  0  0  0  0  0  0  0
  1  2  1  0
  2  3  1  0
  3  4  2  0
  4  5  1  0
  5  6  2  0
  6  7  1  0
  7  8  2  0
  8  9  1  0
 10  9  1  1
 10 11  1  0
 11 12  1  0
 12 13  2  3
 13 14  1  0
 14 15  1  0
 15 16  1  0
 16 17  1  0
 10 18  1  0
 18 19  2  3
 19 20  1  0
 20 21  1  0
  8  3  1  0
M  END
>  <docking_score>  (3) 
-3.4950000000000001

$$$$
