
     RDKit          3D

 17 18  0  0  0  0  0  0  0  0999 V2000
   16.2782   -1.5988   -2.0693 C   0  0  0  0  0  0  0  0  0  0  0  0
   17.0429   -2.7347   -2.6991 C   0  0  1  0  0  0  0  0  0  0  0  0
   16.7716   -3.9795   -1.9260 C   0  0  0  0  0  0  0  0  0  0  0  0
   17.3297   -5.2266   -2.5447 C   0  0  2  0  0  0  0  0  0  0  0  0
   18.7202   -5.2755   -2.5006 O   0  0  0  0  0  0  0  0  0  0  0  0
   16.9388   -5.2872   -4.0115 C   0  0  2  0  0  0  0  0  0  0  0  0
   17.2683   -6.4699   -4.6154 O   0  0  0  0  0  0  0  0  0  0  0  0
   17.5198   -4.0680   -4.6650 C   0  0  1  0  0  0  0  0  0  0  0  0
   17.6113   -4.1360   -6.0261 O   0  0  0  0  0  0  0  0  0  0  0  0
   16.6768   -2.8821   -4.1844 C   0  0  1  0  0  0  0  0  0  0  0  0
   15.2911   -3.3774   -4.1790 N   0  0  0  0  0  0  0  0  0  0  0  0
   14.6377   -3.1621   -5.4369 C   0  0  0  0  0  3  0  0  0  0  0  0
   14.2468   -4.4486   -6.1072 C   0  0  1  0  0  0  0  0  0  0  0  0
   14.7551   -4.5704   -7.5143 C   0  0  0  0  0  0  0  0  0  0  0  0
   14.4811   -5.5678   -5.3320 O   0  0  0  0  0  0  0  0  0  0  0  0
   15.4156   -6.4356   -5.8978 C   0  0  0  0  0  3  0  0  0  0  0  0
   16.1453   -7.1043   -4.9033 O   0  0  0  0  0  0  0  0  0  0  0  0
  2  1  1  1
  2  3  1  0
  3  4  1  0
  4  5  1  6
  4  6  1  0
  6  7  1  6
  6  8  1  0
  8  9  1  6
  8 10  1  0
 10 11  1  1
 11 12  1  0
 12 13  1  0
 13 14  1  6
 13 15  1  0
 15 16  1  0
 16 17  1  0
 10  2  1  0
 17  7  1  0
M  RAD  2  12   2  16   2
M  END
>  <docking_score>  (1) 
-5.3159999999999998

$$$$

     RDKit          3D

 17 18  0  0  0  0  0  0  0  0999 V2000
   18.5979   -1.5585   -1.9826 C   0  0  0  0  0  0  0  0  0  0  0  0
   18.3818   -2.8673   -2.6982 C   0  0  1  0  0  0  0  0  0  0  0  0
   17.3612   -3.6565   -1.9523 C   0  0  0  0  0  0  0  0  0  0  0  0
   16.9179   -4.9094   -2.6474 C   0  0  2  0  0  0  0  0  0  0  0  0
   17.9128   -5.8820   -2.6937 O   0  0  0  0  0  0  0  0  0  0  0  0
   16.5531   -4.5918   -4.0875 C   0  0  2  0  0  0  0  0  0  0  0  0
   15.9847   -5.6447   -4.7512 O   0  0  0  0  0  0  0  0  0  0  0  0
   17.7880   -4.0375   -4.7348 C   0  0  1  0  0  0  0  0  0  0  0  0
   17.7768   -4.0564   -6.1005 O   0  0  0  0  0  0  0  0  0  0  0  0
   17.9762   -2.6291   -4.1613 C   0  0  1  0  0  0  0  0  0  0  0  0
   16.6194   -2.0647   -4.0845 N   0  0  0  0  0  0  0  0  0  0  0  0
   16.2517   -1.3815   -5.2901 C   0  0  0  0  0  3  0  0  0  0  0  0
   15.0798   -2.0229   -5.9777 C   0  0  1  0  0  0  0  0  0  0  0  0
   15.3391   -2.3582   -7.4176 C   0  0  0  0  0  0  0  0  0  0  0  0
   14.5173   -3.0589   -5.2575 O   0  0  0  0  0  0  0  0  0  0  0  0
   14.6089   -4.2882   -5.9110 C   0  0  0  0  0  3  0  0  0  0  0  0
   14.7210   -5.3393   -4.9884 O   0  0  0  0  0  0  0  0  0  0  0  0
  2  1  1  1
  2  3  1  0
  3  4  1  0
  4  5  1  6
  4  6  1  0
  6  7  1  6
  6  8  1  0
  8  9  1  6
  8 10  1  0
 10 11  1  1
 11 12  1  0
 12 13  1  0
 13 14  1  6
 13 15  1  0
 15 16  1  0
 16 17  1  0
 10  2  1  0
 17  7  1  0
M  RAD  2  12   2  16   2
M  END
>  <docking_score>  (2) 
-5.1669999999999998

$$$$

     RDKit          3D

 17 18  0  0  0  0  0  0  0  0999 V2000
   16.2166   -7.5869   -5.3566 C   0  0  0  0  0  0  0  0  0  0  0  0
   16.1387   -6.1158   -5.6753 C   0  0  1  0  0  0  0  0  0  0  0  0
   14.7768   -5.6227   -5.3248 C   0  0  0  0  0  0  0  0  0  0  0  0
   14.6117   -4.1354   -5.4262 C   0  0  2  0  0  0  0  0  0  0  0  0
   14.6469   -3.6766   -6.7400 O   0  0  0  0  0  0  0  0  0  0  0  0
   15.7495   -3.4449   -4.6937 C   0  0  2  0  0  0  0  0  0  0  0  0
   15.5926   -2.0892   -4.5968 O   0  0  0  0  0  0  0  0  0  0  0  0
   17.0211   -3.8816   -5.3596 C   0  0  1  0  0  0  0  0  0  0  0  0
   18.1026   -3.0867   -5.1065 O   0  0  0  0  0  0  0  0  0  0  0  0
   17.2440   -5.3391   -4.9424 C   0  0  1  0  0  0  0  0  0  0  0  0
   16.8581   -5.3922   -3.5233 N   0  0  0  0  0  0  0  0  0  0  0  0
   17.9636   -5.1127   -2.6542 C   0  0  0  0  0  3  0  0  0  0  0  0
   17.7504   -3.8698   -1.8375 C   0  0  1  0  0  0  0  0  0  0  0  0
   18.8687   -2.8755   -1.9554 C   0  0  0  0  0  0  0  0  0  0  0  0
   16.4945   -3.3160   -1.9934 O   0  0  0  0  0  0  0  0  0  0  0  0
   16.5293   -2.0362   -2.5479 C   0  0  0  0  0  3  0  0  0  0  0  0
   15.3862   -1.7952   -3.3250 O   0  0  0  0  0  0  0  0  0  0  0  0
  2  1  1  1
  2  3  1  0
  3  4  1  0
  4  5  1  6
  4  6  1  0
  6  7  1  6
  6  8  1  0
  8  9  1  1
  8 10  1  0
 10 11  1  1
 11 12  1  0
 12 13  1  0
 13 14  1  6
 13 15  1  0
 15 16  1  0
 16 17  1  0
 10  2  1  0
 17  7  1  0
M  RAD  2  12   2  16   2
M  END
>  <docking_score>  (3) 
-5.0800000000000001

$$$$
