
     RDKit          3D

 30 32  0  0  0  0  0  0  0  0999 V2000
   14.0234   -0.0836   -3.3501 C   0  0  0  0  0  0  0  0  0  0  0  0
   13.8315    0.5980   -4.5879 O   0  0  0  0  0  0  0  0  0  0  0  0
   14.3976    0.0438   -5.7307 C   0  0  0  0  0  0  0  0  0  0  0  0
   14.6550   -1.2595   -5.8001 C   0  0  0  0  0  0  0  0  0  0  0  0
   15.2412   -1.8150   -6.9912 C   0  0  0  0  0  0  0  0  0  0  0  0
   16.4034   -2.4046   -6.9348 C   0  0  0  0  0  0  0  0  0  0  0  0
   17.1286   -2.5057   -5.6391 C   0  0  2  0  0  0  0  0  0  0  0  0
   16.3730   -3.0703   -4.5369 C   0  0  0  0  0  0  0  0  0  0  0  0
   16.6770   -3.8403   -3.5710 C   0  0  0  0  0  0  0  0  0  0  0  0
   17.8418   -4.4925   -3.1165 C   0  0  0  0  0  0  0  0  0  0  0  0
   18.3319   -5.8506   -3.4698 C   0  0  0  0  0  0  0  0  0  0  0  0
   18.6225   -3.8360   -2.2379 C   0  0  0  0  0  0  0  0  0  0  0  0
   18.3017   -2.5009   -1.7555 C   0  0  0  0  0  0  0  0  0  0  0  0
   18.7708   -1.4304   -2.4161 C   0  0  0  0  0  0  0  0  0  0  0  0
   19.6129   -1.6041   -3.6335 C   0  0  0  0  0  0  0  0  0  0  0  0
   17.8912   -1.2871   -5.2784 C   0  0  0  0  0  0  0  0  0  0  0  0
   18.8172   -2.0575   -4.7777 C   0  0  0  0  0  0  0  0  0  0  0  0
   18.5031   -3.0529   -5.7587 C   0  0  0  0  0  0  0  0  0  0  0  0
   19.0833   -4.0105   -6.4629 C   0  0  0  0  0  0  0  0  0  0  0  0
   18.3030   -4.8265   -7.4087 C   0  0  0  0  0  0  0  0  0  0  0  0
   18.5653   -6.0899   -7.6232 C   0  0  0  0  0  0  0  0  0  0  0  0
   19.7058   -6.7110   -6.8686 C   0  0  2  0  0  0  0  0  0  0  0  0
   20.8456   -7.0147   -7.8370 C   0  0  0  0  0  0  0  0  0  0  0  0
   21.0243   -8.4826   -7.6985 C   0  0  0  0  0  0  0  0  0  0  0  0
   20.0993   -8.9111   -6.8573 C   0  0  0  0  0  0  0  0  0  0  0  0
   19.3248   -8.0260   -6.3144 C   0  0  0  0  0  0  0  0  0  0  0  0
   18.3379   -8.2875   -5.3947 O   0  0  0  0  0  0  0  0  0  0  0  0
   17.5934   -9.4461   -5.3421 C   0  0  0  0  0  0  0  0  0  0  0  0
   17.1910   -9.9800   -6.4789 C   0  0  0  0  0  0  0  0  0  0  0  0
   16.4617  -11.1041   -6.5676 F   0  0  0  0  0  0  0  0  0  0  0  0
  1  2  1  0
  2  3  1  0
  3  4  2  3
  4  5  1  0
  5  6  2  3
  7  6  1  6
  7  8  1  0
  8  9  2  3
  9 10  1  0
 10 11  1  0
 10 12  2  3
 12 13  1  0
 13 14  2  3
 14 15  1  0
  7 16  1  0
 16 17  2  0
 17 18  1  0
 18 19  2  3
 19 20  1  0
 20 21  2  3
 21 22  1  0
 22 23  1  6
 23 24  1  0
 24 25  2  0
 25 26  2  0
 26 27  1  0
 27 28  1  0
 28 29  2  3
 29 30  1  0
 18  7  1  0
 17 15  1  0
 26 22  1  0
M  END
>  <docking_score>  (1) 
-4.7080000000000002

$$$$

     RDKit          3D

 30 32  0  0  0  0  0  0  0  0999 V2000
    3.2201    9.3978   14.5838 C   0  0  0  0  0  0  0  0  0  0  0  0
    3.2918    8.0789   14.0465 O   0  0  0  0  0  0  0  0  0  0  0  0
    3.3992    7.9432   12.6668 C   0  0  0  0  0  0  0  0  0  0  0  0
    4.2970    8.6456   11.9810 C   0  0  0  0  0  0  0  0  0  0  0  0
    4.3934    8.4918   10.5534 C   0  0  0  0  0  0  0  0  0  0  0  0
    4.3986    9.5428    9.7809 C   0  0  0  0  0  0  0  0  0  0  0  0
    4.3048   10.9056   10.3716 C   0  0  2  0  0  0  0  0  0  0  0  0
    5.4450   11.3290   11.1623 C   0  0  0  0  0  0  0  0  0  0  0  0
    6.0415   12.4426   11.3115 C   0  0  0  0  0  0  0  0  0  0  0  0
    5.8955   13.7516   10.8072 C   0  0  0  0  0  0  0  0  0  0  0  0
    6.5210   14.3451    9.5965 C   0  0  0  0  0  0  0  0  0  0  0  0
    5.1099   14.6015   11.4948 C   0  0  0  0  0  0  0  0  0  0  0  0
    4.4237   14.2129   12.7181 C   0  0  0  0  0  0  0  0  0  0  0  0
    3.1846   13.7014   12.6453 C   0  0  0  0  0  0  0  0  0  0  0  0
    2.5146   13.5312   11.3249 C   0  0  0  0  0  0  0  0  0  0  0  0
    2.9970   11.2000   11.0038 C   0  0  0  0  0  0  0  0  0  0  0  0
    3.0995   12.4237   10.5638 C   0  0  0  0  0  0  0  0  0  0  0  0
    3.8214   11.9412    9.4245 C   0  0  0  0  0  0  0  0  0  0  0  0
    4.0140   12.2190    8.1457 C   0  0  0  0  0  0  0  0  0  0  0  0
    4.9033   11.3841    7.3204 C   0  0  0  0  0  0  0  0  0  0  0  0
    5.3058   11.7546    6.1323 C   0  0  0  0  0  0  0  0  0  0  0  0
    4.8332   13.0813    5.6100 C   0  0  2  0  0  0  0  0  0  0  0  0
    3.5521   12.8795    4.8056 C   0  0  0  0  0  0  0  0  0  0  0  0
    3.9121   13.3982    3.4613 C   0  0  0  0  0  0  0  0  0  0  0  0
    5.1843   13.7533    3.5075 C   0  0  0  0  0  0  0  0  0  0  0  0
    5.7966   13.6474    4.6441 C   0  0  0  0  0  0  0  0  0  0  0  0
    7.1024   14.0033    4.8819 O   0  0  0  0  0  0  0  0  0  0  0  0
    8.1836   13.5868    4.1358 C   0  0  0  0  0  0  0  0  0  0  0  0
    8.8849   14.4996    3.4921 C   0  0  0  0  0  0  0  0  0  0  0  0
    9.9584   14.2284    2.7321 F   0  0  0  0  0  0  0  0  0  0  0  0
  1  2  1  0
  2  3  1  0
  3  4  2  3
  4  5  1  0
  5  6  2  3
  7  6  1  6
  7  8  1  0
  8  9  2  3
  9 10  1  0
 10 11  1  0
 10 12  2  3
 12 13  1  0
 13 14  2  3
 14 15  1  0
  7 16  1  0
 16 17  2  0
 17 18  1  0
 18 19  2  3
 19 20  1  0
 20 21  2  3
 21 22  1  0
 22 23  1  6
 23 24  1  0
 24 25  2  0
 25 26  2  0
 26 27  1  0
 27 28  1  0
 28 29  2  3
 29 30  1  0
 18  7  1  0
 17 15  1  0
 26 22  1  0
M  END
>  <docking_score>  (2) 
-4.173

$$$$

     RDKit          3D

 30 32  0  0  0  0  0  0  0  0999 V2000
   14.4415   -4.8593   -5.4567 C   0  0  0  0  0  0  0  0  0  0  0  0
   14.2729   -3.4434   -5.4553 O   0  0  0  0  0  0  0  0  0  0  0  0
   15.1285   -2.6853   -6.2470 C   0  0  0  0  0  0  0  0  0  0  0  0
   16.3651   -2.4085   -5.8421 C   0  0  0  0  0  0  0  0  0  0  0  0
   17.2362   -1.6222   -6.6751 C   0  0  0  0  0  0  0  0  0  0  0  0
   18.4514   -1.3557   -6.2831 C   0  0  0  0  0  0  0  0  0  0  0  0
   18.9429   -1.8630   -4.9732 C   0  0  2  0  0  0  0  0  0  0  0  0
   17.9216   -2.1319   -3.9786 C   0  0  0  0  0  0  0  0  0  0  0  0
   17.7799   -3.0319   -3.0909 C   0  0  0  0  0  0  0  0  0  0  0  0
   18.5105   -4.1571   -2.6559 C   0  0  0  0  0  0  0  0  0  0  0  0
   18.4075   -5.5607   -3.1340 C   0  0  0  0  0  0  0  0  0  0  0  0
   19.4119   -3.9742   -1.6729 C   0  0  0  0  0  0  0  0  0  0  0  0
   19.6457   -2.6746   -1.0608 C   0  0  0  0  0  0  0  0  0  0  0  0
   20.5833   -1.8627   -1.5746 C   0  0  0  0  0  0  0  0  0  0  0  0
   21.3797   -2.2853   -2.7615 C   0  0  0  0  0  0  0  0  0  0  0  0
   20.1143   -1.1260   -4.4424 C   0  0  0  0  0  0  0  0  0  0  0  0
   20.5753   -2.2579   -3.9863 C   0  0  0  0  0  0  0  0  0  0  0  0
   19.9596   -2.9385   -5.0862 C   0  0  0  0  0  0  0  0  0  0  0  0
   20.1400   -3.9932   -5.8637 C   0  0  0  0  0  0  0  0  0  0  0  0
   19.1774   -4.3141   -6.9311 C   0  0  0  0  0  0  0  0  0  0  0  0
   19.1913   -5.4589   -7.5636 C   0  0  0  0  0  0  0  0  0  0  0  0
   20.2332   -6.4677   -7.1724 C   0  0  2  0  0  0  0  0  0  0  0  0
   20.9998   -6.9095   -8.4159 C   0  0  0  0  0  0  0  0  0  0  0  0
   20.7656   -8.3756   -8.4539 C   0  0  0  0  0  0  0  0  0  0  0  0
   19.9574   -8.6682   -7.4499 C   0  0  0  0  0  0  0  0  0  0  0  0
   19.6109   -7.7041   -6.6572 C   0  0  0  0  0  0  0  0  0  0  0  0
   18.8106   -7.8335   -5.5476 O   0  0  0  0  0  0  0  0  0  0  0  0
   18.1639   -8.9904   -5.1700 C   0  0  0  0  0  0  0  0  0  0  0  0
   16.8917   -9.1257   -5.4901 C   0  0  0  0  0  0  0  0  0  0  0  0
   16.1471  -10.2004   -5.1833 F   0  0  0  0  0  0  0  0  0  0  0  0
  1  2  1  0
  2  3  1  0
  3  4  2  3
  4  5  1  0
  5  6  2  3
  7  6  1  6
  7  8  1  0
  8  9  2  3
  9 10  1  0
 10 11  1  0
 10 12  2  3
 12 13  1  0
 13 14  2  3
 14 15  1  0
  7 16  1  0
 16 17  2  0
 17 18  1  0
 18 19  2  3
 19 20  1  0
 20 21  2  3
 21 22  1  0
 22 23  1  6
 23 24  1  0
 24 25  2  0
 25 26  2  0
 26 27  1  0
 27 28  1  0
 28 29  2  3
 29 30  1  0
 18  7  1  0
 17 15  1  0
 26 22  1  0
M  END
>  <docking_score>  (3) 
-4.1390000000000002

$$$$
