
     RDKit          3D

 17 16  0  0  0  0  0  0  0  0999 V2000
   14.2299   -1.9157   -4.8676 O   0  0  0  0  0  0  0  0  0  0  0  0
   14.6093   -0.9062   -5.5125 C   0  0  0  0  0  0  0  0  0  0  0  0
   13.6462   -0.0320   -5.9788 O   0  0  0  0  0  0  0  0  0  0  0  0
   16.0549   -0.6974   -5.7436 C   0  0  0  0  0  0  0  0  0  0  0  0
   16.6839   -1.9331   -6.3425 C   0  0  0  0  0  0  0  0  0  0  0  0
   15.9862   -2.2979   -7.6435 C   0  0  0  0  0  0  0  0  0  0  0  0
   15.6603   -3.7490   -7.6540 C   0  0  0  0  0  0  0  0  0  0  0  0
   14.4728   -4.1632   -7.8340 O   0  0  0  0  0  0  0  0  0  0  0  0
   16.6429   -4.7560   -7.4655 N   0  0  0  0  0  0  0  0  0  0  0  0
   16.3305   -6.1722   -7.4744 C   0  0  0  0  0  0  0  0  0  0  0  0
   16.5930   -6.8476   -6.1727 C   0  0  0  0  0  0  0  0  0  0  0  0
   15.6524   -6.4478   -5.0797 C   0  0  0  0  0  0  0  0  0  0  0  0
   16.3666   -5.8877   -3.8648 C   0  0  0  0  0  0  0  0  0  0  0  0
   16.1523   -4.4020   -3.7265 C   0  0  0  0  0  0  0  0  0  0  0  0
   16.8012   -3.8461   -2.4807 C   0  0  0  0  0  0  0  0  0  0  0  0
   16.5629   -2.3588   -2.3776 C   0  0  0  0  0  0  0  0  0  0  0  0
   17.5689   -1.6784   -2.2527 O   0  0  0  0  0  0  0  0  0  0  0  0
  1  2  2  0
  2  3  1  0
  2  4  1  0
  4  5  1  0
  5  6  1  0
  6  7  1  0
  7  8  2  0
  7  9  1  0
  9 10  1  0
 10 11  1  0
 11 12  1  0
 12 13  1  0
 13 14  1  0
 14 15  1  0
 15 16  1  0
 16 17  2  0
M  END
>  <docking_score>  (1) 
-3.4609999999999999

$$$$

     RDKit          3D

 17 16  0  0  0  0  0  0  0  0999 V2000
   17.6512   -2.0888   -3.2215 O   0  0  0  0  0  0  0  0  0  0  0  0
   16.7607   -2.3789   -2.3838 C   0  0  0  0  0  0  0  0  0  0  0  0
   15.8300   -1.4099   -2.0614 O   0  0  0  0  0  0  0  0  0  0  0  0
   16.7455   -3.7304   -1.7838 C   0  0  0  0  0  0  0  0  0  0  0  0
   16.4469   -4.7764   -2.8315 C   0  0  0  0  0  0  0  0  0  0  0  0
   17.6639   -5.6619   -3.0494 C   0  0  0  0  0  0  0  0  0  0  0  0
   17.6801   -6.1653   -4.4488 C   0  0  0  0  0  0  0  0  0  0  0  0
   17.8809   -7.3918   -4.7127 O   0  0  0  0  0  0  0  0  0  0  0  0
   17.4751   -5.3187   -5.5697 N   0  0  0  0  0  0  0  0  0  0  0  0
   17.4903   -5.8043   -6.9361 C   0  0  0  0  0  0  0  0  0  0  0  0
   16.2804   -5.4220   -7.7169 C   0  0  0  0  0  0  0  0  0  0  0  0
   16.3287   -4.0333   -8.2720 C   0  0  0  0  0  0  0  0  0  0  0  0
   15.1489   -3.1850   -7.8380 C   0  0  0  0  0  0  0  0  0  0  0  0
   15.5940   -1.8909   -7.2059 C   0  0  0  0  0  0  0  0  0  0  0  0
   15.1559   -1.7806   -5.7642 C   0  0  0  0  0  0  0  0  0  0  0  0
   14.5234   -0.4346   -5.5042 C   0  0  0  0  0  0  0  0  0  0  0  0
   13.7656   -0.3922   -4.5478 O   0  0  0  0  0  0  0  0  0  0  0  0
  1  2  2  0
  2  3  1  0
  2  4  1  0
  4  5  1  0
  5  6  1  0
  6  7  1  0
  7  8  2  0
  7  9  1  0
  9 10  1  0
 10 11  1  0
 11 12  1  0
 12 13  1  0
 13 14  1  0
 14 15  1  0
 15 16  1  0
 16 17  2  0
M  END
>  <docking_score>  (2) 
-3.339

$$$$

     RDKit          3D

 17 16  0  0  0  0  0  0  0  0999 V2000
   16.4928   -3.6984   -1.5570 O   0  0  0  0  0  0  0  0  0  0  0  0
   16.9937   -4.5640   -2.3178 C   0  0  0  0  0  0  0  0  0  0  0  0
   16.1357   -5.3540   -3.0587 O   0  0  0  0  0  0  0  0  0  0  0  0
   18.4645   -4.7004   -2.3883 C   0  0  0  0  0  0  0  0  0  0  0  0
   19.1422   -3.4898   -1.7915 C   0  0  0  0  0  0  0  0  0  0  0  0
   20.4359   -3.1945   -2.5342 C   0  0  0  0  0  0  0  0  0  0  0  0
   20.1465   -2.4079   -3.7629 C   0  0  0  0  0  0  0  0  0  0  0  0
   20.9199   -2.4386   -4.7704 O   0  0  0  0  0  0  0  0  0  0  0  0
   19.0005   -1.5799   -3.8900 N   0  0  0  0  0  0  0  0  0  0  0  0
   18.7138   -0.8107   -5.0855 C   0  0  0  0  0  0  0  0  0  0  0  0
   17.4231   -1.1770   -5.7334 C   0  0  0  0  0  0  0  0  0  0  0  0
   16.7543   -2.3693   -5.1250 C   0  0  0  0  0  0  0  0  0  0  0  0
   15.3807   -2.0517   -4.5660 C   0  0  0  0  0  0  0  0  0  0  0  0
   14.3042   -2.8716   -5.2302 C   0  0  0  0  0  0  0  0  0  0  0  0
   14.8715   -4.0443   -5.9954 C   0  0  0  0  0  0  0  0  0  0  0  0
   13.8476   -5.1480   -6.1092 C   0  0  0  0  0  0  0  0  0  0  0  0
   12.7541   -4.8943   -5.6289 O   0  0  0  0  0  0  0  0  0  0  0  0
  1  2  2  0
  2  3  1  0
  2  4  1  0
  4  5  1  0
  5  6  1  0
  6  7  1  0
  7  8  2  0
  7  9  1  0
  9 10  1  0
 10 11  1  0
 11 12  1  0
 12 13  1  0
 13 14  1  0
 14 15  1  0
 15 16  1  0
 16 17  2  0
M  END
>  <docking_score>  (3) 
-3.1970000000000001

$$$$
