
     RDKit          3D

 87 88  0  0  0  0  0  0  0  0999 V2000
    2.2736   14.2561    9.6136 C   0  0  0  0  0  0  0  0  0  0  0  0
    2.9256   14.2641   10.9670 C   0  0  0  0  0  0  0  0  0  0  0  0
    2.5133   13.0463   11.7595 C   0  0  0  0  0  0  0  0  0  0  0  0
    4.4307   14.3749   10.8870 C   0  0  0  0  0  0  0  0  0  0  0  0
    4.9443   15.5829   11.6222 C   0  0  0  0  0  0  0  0  0  0  0  0
    6.3370   15.9658   11.1859 C   0  0  0  0  0  0  0  0  0  0  0  0
    7.1534   14.7781   10.7744 C   0  0  1  0  0  0  0  0  0  0  0  0
    6.6967   13.6168   11.6678 C   0  0  0  0  0  0  0  0  0  0  0  0
    6.7460   14.3780    9.3564 C   0  0  0  0  0  3  0  0  0  0  0  0
    6.2488   15.6123    8.6461 C   0  0  0  0  0  0  0  0  0  0  0  0
    7.2291   16.0747    7.6140 C   0  0  0  0  0  0  0  0  0  0  0  0
    8.1025   14.9391    7.1789 C   0  0  2  0  0  0  0  0  0  0  0  0
    8.2456   13.8919    8.2770 C   0  0  0  0  0  0  0  0  0  0  0  0
    9.4482   15.3542    6.6721 C   0  0  0  0  0  3  0  0  0  0  0  0
    9.9784   14.4172    5.6203 C   0  0  0  0  0  0  0  0  0  0  0  0
    8.9853   13.3842    5.1547 C   0  0  1  0  0  0  0  0  0  0  0  0
    7.7260   14.0333    4.6834 C   0  0  0  0  0  0  0  0  0  0  0  0
    9.5463   12.5371    4.0402 C   0  0  0  0  0  0  0  0  0  0  0  0
    8.4381   11.6717    3.4956 C   0  0  0  0  0  0  0  0  0  0  0  0
    7.4840   12.4503    2.6115 C   0  0  0  0  0  0  0  0  0  0  0  0
    6.4712   11.5487    1.9576 C   0  0  0  0  0  0  0  0  0  0  0  0
    5.1195   11.6091    2.6322 C   0  0  0  0  0  0  0  0  0  0  0  0
    4.8799   13.0032    3.1571 C   0  0  0  0  0  2  0  0  0  0  0  0
    3.9043   12.9383    4.2814 C   0  0  0  0  0  0  0  0  0  0  0  0
    3.7821   14.2219    5.0216 C   0  0  0  0  0  0  0  0  0  0  0  0
    4.2878   14.4718    6.2027 C   0  0  0  0  0  0  0  0  0  0  0  0
    4.1174   15.8061    6.8906 C   0  0  0  0  0  0  0  0  0  0  0  0
    5.0721   13.4599    6.9587 C   0  0  0  0  0  0  0  0  0  0  0  0
    6.5514   13.5971    6.6880 C   0  0  0  0  0  0  0  0  0  0  0  0
    7.2418   12.2887    6.5523 C   0  0  0  0  0  3  0  0  0  0  0  0
    6.6014   11.2838    5.6676 C   0  0  0  0  0  2  0  0  0  0  0  0
    8.7408   12.4463    6.3490 C   0  0  1  0  0  0  0  0  0  0  0  0
    9.3519   11.1198    6.1104 C   0  0  0  0  0  0  0  0  0  0  0  0
   10.7740   11.0231    5.7831 C   0  0  0  0  0  0  0  0  0  0  0  0
   11.2244   11.5033    4.4484 C   0  0  0  0  0  0  0  0  0  0  0  0
   12.2040   10.5856    3.7956 C   0  0  2  0  0  0  0  0  0  0  0  0
   12.1621   10.7768    2.2640 C   0  0  0  0  0  2  0  0  0  0  0  0
   11.8220    9.1182    4.0625 C   0  0  0  0  0  0  0  0  0  0  0  0
   11.2513    8.9603    5.4354 C   0  0  0  0  0  0  0  0  0  0  0  0
   10.7490    7.5328    5.6244 C   0  0  0  0  0  0  0  0  0  0  0  0
   11.3023    6.7186    4.5298 C   0  0  0  0  0  0  0  0  0  0  0  0
   10.7214    5.6766    4.0509 C   0  0  0  0  0  0  0  0  0  0  0  0
    9.4713    5.0909    4.4485 C   0  0  0  0  0  0  0  0  0  0  0  0
    8.2011    5.6576    3.9480 C   0  0  0  0  0  0  0  0  0  0  0  0
    7.2565    6.1526    5.0101 C   0  0  0  0  0  0  0  0  0  0  0  0
    5.8579    6.3416    4.5545 C   0  0  1  0  0  0  0  0  0  0  0  0
    4.8371    5.6739    5.4298 C   0  0  0  0  0  0  0  0  0  0  0  0
    5.5299    7.7418    4.1818 C   0  0  0  0  0  0  0  0  0  0  0  0
    5.2143    8.5518    5.4155 C   0  0  0  0  0  0  0  0  0  0  0  0
    4.5977    7.6375    6.4832 C   0  0  0  0  0  3  0  0  0  0  0  0
    5.4922    7.7985    7.7199 C   0  0  2  0  0  0  0  0  0  0  0  0
    6.1715    6.4763    8.0142 C   0  0  0  0  0  0  0  0  0  0  0  0
    4.6237    8.2122    8.9153 C   0  0  0  0  0  0  0  0  0  0  0  0
    4.8834    9.6836    9.1439 C   0  0  0  0  0  0  0  0  0  0  0  0
    4.4653   10.0227   10.5505 C   0  0  0  0  0  0  0  0  0  0  0  0
    5.2256    9.2351   11.5778 C   0  0  0  0  0  0  0  0  0  0  0  0
    5.9406   10.0808   12.5664 C   0  0  0  0  0  0  0  0  0  0  0  0
    5.2496   10.7884   13.4382 C   0  0  0  0  0  0  0  0  0  0  0  0
    5.9910   11.6191   14.4087 C   0  0  0  0  0  2  0  0  0  0  0  0
    3.7746   10.7442   13.4232 C   0  0  0  0  0  0  0  0  0  0  0  0
    3.2801    9.7951   14.4743 C   0  0  0  0  0  3  0  0  0  0  0  0
    3.9473   10.1190   15.7859 C   0  0  2  0  0  0  0  0  0  0  0  0
    3.0130    9.6646   16.8932 C   0  0  0  0  0  3  0  0  0  0  0  0
    2.8149    8.1768   16.9190 C   0  0  0  0  0  0  0  0  0  0  0  0
    4.0896    7.4352   16.6363 C   0  0  0  0  0  0  0  0  0  0  0  0
    4.5538    6.7192   17.8943 C   0  0  0  0  0  0  0  0  0  0  0  0
    4.5071    7.6192   19.1096 C   0  0  2  0  0  0  0  0  0  0  0  0
    3.0599    8.0347   19.3857 C   0  0  0  0  0  0  0  0  0  0  0  0
    5.3577    8.8332   18.8140 C   0  0  0  0  0  0  0  0  0  0  0  0
    5.2283    9.8206   19.9572 C   0  0  0  0  0  0  0  0  0  0  0  0
    6.5043   10.6388   19.9867 C   0  0  2  0  0  0  0  0  0  0  0  0
    7.4871   10.0775   20.9827 C   0  0  0  0  0  0  0  0  0  0  0  0
    6.1073   12.0694   20.3523 C   0  0  0  0  0  3  0  0  0  0  0  0
    5.8193   12.8177   19.0638 C   0  0  0  0  0  0  0  0  0  0  0  0
    4.7348   12.1562   18.2660 C   0  0  0  0  0  0  0  0  0  0  0  0
    5.2641   11.9643   16.8356 C   0  0  0  0  0  3  0  0  0  0  0  0
    4.1793   11.5754   15.8995 C   0  0  1  0  0  0  0  0  0  0  0  0
    3.9606   12.3913   14.7040 C   0  0  0  0  0  3  0  0  0  0  0  0
    5.2299   12.6235   13.9073 C   0  0  0  0  0  0  0  0  0  0  0  0
    6.2031   13.3911   14.7476 C   0  0  0  0  0  3  0  0  0  0  0  0
    6.1359   14.8469   14.4581 C   0  0  0  0  0  0  0  0  0  0  0  0
    7.2430   15.5645   14.6046 C   0  0  0  0  0  0  0  0  0  0  0  0
    8.5165   14.9812   15.0366 C   0  0  0  0  0  0  0  0  0  0  0  0
    9.6469   15.9609   15.1602 C   0  0  0  0  0  0  0  0  0  0  0  0
   10.9901   15.3743   14.8569 C   0  0  0  0  0  0  0  0  0  0  0  0
   12.0355   15.9525   15.8176 C   0  0  0  0  0  0  0  0  0  0  0  0
   13.3358   16.0153   15.0337 C   0  0  0  0  0  0  0  0  0  0  0  0
  1  2  1  0
  2  3  1  0
  2  4  1  0
  4  5  1  0
  5  6  1  0
  6  7  1  0
  7  8  1  1
  7  9  1  0
  9 10  1  0
 10 11  1  0
 11 12  1  0
 12 13  1  1
 12 14  1  0
 14 15  1  0
 15 16  1  0
 16 17  1  6
 16 18  1  0
 18 19  1  0
 19 20  1  0
 20 21  1  0
 21 22  1  0
 22 23  1  0
 23 24  1  0
 24 25  1  0
 25 26  2  3
 26 27  1  0
 26 28  1  0
 28 29  1  0
 29 30  1  0
 30 31  1  0
 30 32  1  0
 32 33  1  6
 33 34  1  0
 34 35  1  0
 35 36  1  0
 36 37  1  6
 36 38  1  0
 38 39  1  0
 39 40  1  0
 40 41  1  0
 41 42  2  3
 42 43  1  0
 43 44  1  0
 44 45  1  0
 45 46  1  0
 46 47  1  1
 46 48  1  0
 48 49  1  0
 49 50  1  0
 50 51  1  0
 51 52  1  1
 51 53  1  0
 53 54  1  0
 54 55  1  0
 55 56  1  0
 56 57  1  0
 57 58  2  3
 58 59  1  0
 58 60  1  0
 60 61  1  0
 62 61  1  6
 62 63  1  0
 63 64  1  0
 64 65  1  0
 65 66  1  0
 66 67  1  0
 67 68  1  6
 67 69  1  0
 69 70  1  0
 70 71  1  0
 71 72  1  1
 71 73  1  0
 73 74  1  0
 74 75  1  0
 75 76  1  0
 76 77  1  0
 77 78  1  6
 78 79  1  0
 79 80  1  0
 80 81  1  0
 81 82  2  3
 82 83  1  0
 83 84  1  0
 84 85  1  0
 85 86  1  0
 86 87  1  0
 32 16  1  0
 77 62  1  0
M  RAD  8   9   2  14   2  23   3  30   2  31   3  37   3  50   2  59   3
M  RAD  6  61   2  63   2  73   2  76   2  78   2  80   2
M  END
>  <docking_score>  (1) 
64.713999999999999

$$$$
