
     RDKit          3D

 13 13  0  0  0  0  0  0  0  0999 V2000
    6.1518    1.3127   24.8508 N   0  0  0  0  0  0  0  0  0  0  0  0
    5.1084    1.1520   25.6698 C   0  0  0  0  0  0  0  0  0  0  0  0
    5.1174   -0.1626   26.0117 N   0  0  0  0  0  0  0  0  0  0  0  0
    6.1345   -0.7842   25.4195 C   0  0  0  0  0  0  0  0  0  0  0  0
    6.5331   -2.1223   25.4772 O   0  0  0  0  0  0  0  0  0  0  0  0
    6.8113    0.1560   24.6665 C   0  0  0  0  0  0  0  0  0  0  0  0
    8.0032    0.0061   23.8200 C   0  0  0  0  0  0  0  0  0  0  0  0
    7.7664   -0.7237   22.5425 C   0  0  0  0  0  0  0  0  0  0  0  0
    8.6433   -0.2067   21.4439 C   0  0  0  0  0  0  0  0  0  0  0  0
    7.9656   -0.2828   20.0972 C   0  0  0  0  0  0  0  0  0  0  0  0
    8.5547   -1.4585   19.3439 C   0  0  0  0  0  0  0  0  0  0  0  0
    8.8304   -1.1185   17.8972 C   0  0  0  0  0  0  0  0  0  0  0  0
    7.4852   -1.8122   16.9384 Cl  0  0  0  0  0  0  0  0  0  0  0  0
  1  2  1  0
  2  3  2  0
  3  4  1  0
  4  5  1  0
  4  6  2  0
  6  7  1  0
  7  8  1  0
  8  9  1  0
  9 10  1  0
 10 11  1  0
 11 12  1  0
 12 13  1  0
  6  1  1  0
M  END
>  <docking_score>  (1) 
-4.4089999999999998

$$$$

     RDKit          3D

 13 13  0  0  0  0  0  0  0  0999 V2000
    5.9222    0.0668   24.7259 N   0  0  0  0  0  0  0  0  0  0  0  0
    5.0793    0.3261   25.7296 C   0  0  0  0  0  0  0  0  0  0  0  0
    5.6728    1.3102   26.4538 N   0  0  0  0  0  0  0  0  0  0  0  0
    6.8413    1.6406   25.9087 C   0  0  0  0  0  0  0  0  0  0  0  0
    7.7871    2.5901   26.3045 O   0  0  0  0  0  0  0  0  0  0  0  0
    7.0157    0.8457   24.7921 C   0  0  0  0  0  0  0  0  0  0  0  0
    8.1266    0.7999   23.8312 C   0  0  0  0  0  0  0  0  0  0  0  0
    7.7352    0.3901   22.4529 C   0  0  0  0  0  0  0  0  0  0  0  0
    8.0798   -1.0429   22.1872 C   0  0  0  0  0  0  0  0  0  0  0  0
    8.3922   -1.2881   20.7309 C   0  0  0  0  0  0  0  0  0  0  0  0
    7.7234   -0.1965   19.9197 C   0  0  0  0  0  0  0  0  0  0  0  0
    8.5074    0.1372   18.6713 C   0  0  0  0  0  0  0  0  0  0  0  0
   10.0923   -0.6847   18.8218 Cl  0  0  0  0  0  0  0  0  0  0  0  0
  1  2  1  0
  2  3  2  0
  3  4  1  0
  4  5  1  0
  4  6  2  0
  6  7  1  0
  7  8  1  0
  8  9  1  0
  9 10  1  0
 10 11  1  0
 11 12  1  0
 12 13  1  0
  6  1  1  0
M  END
>  <docking_score>  (2) 
-4.1920000000000002

$$$$

     RDKit          3D

 13 13  0  0  0  0  0  0  0  0999 V2000
    6.9654    1.6588   24.9542 N   0  0  0  0  0  0  0  0  0  0  0  0
    6.3952    1.6752   26.1624 C   0  0  0  0  0  0  0  0  0  0  0  0
    6.1709    0.3720   26.4730 N   0  0  0  0  0  0  0  0  0  0  0  0
    6.5912   -0.4146   25.4849 C   0  0  0  0  0  0  0  0  0  0  0  0
    6.5652   -1.8065   25.3644 O   0  0  0  0  0  0  0  0  0  0  0  0
    7.1066    0.4026   24.4972 C   0  0  0  0  0  0  0  0  0  0  0  0
    7.7003    0.0536   23.1990 C   0  0  0  0  0  0  0  0  0  0  0  0
    8.0814    1.2240   22.3589 C   0  0  0  0  0  0  0  0  0  0  0  0
    9.4088    1.0161   21.6972 C   0  0  0  0  0  0  0  0  0  0  0  0
    9.2848    0.9369   20.1949 C   0  0  0  0  0  0  0  0  0  0  0  0
    9.8492   -0.3973   19.7496 C   0  0  0  0  0  0  0  0  0  0  0  0
    9.2388   -0.8596   18.4465 C   0  0  0  0  0  0  0  0  0  0  0  0
    7.7165    0.0611   18.2340 Cl  0  0  0  0  0  0  0  0  0  0  0  0
  1  2  1  0
  2  3  2  0
  3  4  1  0
  4  5  1  0
  4  6  2  0
  6  7  1  0
  7  8  1  0
  8  9  1  0
  9 10  1  0
 10 11  1  0
 11 12  1  0
 12 13  1  0
  6  1  1  0
M  END
>  <docking_score>  (3) 
-4.0979999999999999

$$$$
