
     RDKit          3D

 25 26  0  0  0  0  0  0  0  0999 V2000
   17.0642   -3.5131   -4.9043 C   0  0  0  0  0  0  0  0  0  0  0  0
   15.5969   -3.8390   -5.0683 C   0  0  1  0  0  0  0  0  0  0  0  0
   14.9944   -3.2382   -6.2892 C   0  0  0  0  0  0  0  0  0  0  0  0
   15.4510   -3.9533   -7.5414 C   0  0  2  0  0  0  0  0  0  0  0  0
   14.8493   -3.3581   -8.6554 O   0  0  0  0  0  0  0  0  0  0  0  0
   14.9885   -5.4083   -7.3894 C   0  0  2  0  0  0  0  0  0  0  0  0
   13.6582   -5.4200   -6.9796 O   0  0  0  0  0  0  0  0  0  0  0  0
   15.8039   -5.9807   -6.2414 C   0  0  1  0  0  0  0  0  0  0  0  0
   17.1503   -5.6859   -6.3864 O   0  0  0  0  0  0  0  0  0  0  0  0
   15.3135   -5.3017   -4.9596 C   0  0  1  0  0  0  0  0  0  0  0  0
   15.8608   -5.9644   -3.8599 N   0  0  0  0  0  0  0  0  0  0  0  0
   16.8094   -5.3175   -3.0546 C   0  0  0  0  0  3  0  0  0  0  0  0
   16.4579   -3.9390   -2.5850 C   0  0  0  0  0  0  0  0  0  0  0  0
   17.1963   -2.9614   -3.4778 C   0  0  2  0  0  0  0  0  0  0  0  0
   16.6681   -1.6845   -3.4223 O   0  0  0  0  0  0  0  0  0  0  0  0
   18.5221   -2.9524   -3.0883 O   0  0  0  0  0  0  0  0  0  0  0  0
   18.8940   -1.6182   -2.9196 C   0  0  1  0  0  0  0  0  0  0  0  0
   18.7346   -1.1915   -1.6128 O   0  0  0  0  0  0  0  0  0  0  0  0
   20.3836   -1.5535   -3.2735 C   0  0  2  0  0  0  0  0  0  0  0  0
   20.7835   -0.2375   -3.0611 O   0  0  0  0  0  0  0  0  0  0  0  0
   20.4797   -1.8913   -4.7444 C   0  0  0  0  0  3  0  0  0  0  0  0
   19.7507   -0.5598   -5.6987 S   0  0  0  0  0  0  0  0  0  0  0  0
   20.7016   -0.2444   -7.0852 O   0  0  0  0  0  0  0  0  0  0  0  0
   21.1653   -1.3880   -7.5419 O   0  0  0  0  0  0  0  0  0  0  0  0
   19.9829   -2.1009   -8.5317 S   0  0  0  0  0  0  0  0  0  0  0  0
  2  1  1  6
  2  3  1  0
  3  4  1  0
  4  5  1  6
  4  6  1  0
  6  7  1  1
  6  8  1  0
  8  9  1  6
  8 10  1  0
 10 11  1  1
 11 12  1  0
 12 13  1  0
 13 14  1  0
 14 15  1  6
 14 16  1  0
 16 17  1  0
 17 18  1  1
 17 19  1  0
 19 20  1  6
 19 21  1  0
 21 22  1  0
 22 23  1  0
 23 24  1  0
 24 25  1  0
 14  1  1  0
 10  2  1  0
M  RAD  2  12   2  21   2
M  END
>  <docking_score>  (1) 
-4.0990000000000002

$$$$

     RDKit          3D

 25 26  0  0  0  0  0  0  0  0999 V2000
    5.5538   11.3426    4.0048 C   0  0  0  0  0  0  0  0  0  0  0  0
    5.4651   12.6453    3.2426 C   0  0  1  0  0  0  0  0  0  0  0  0
    5.3537   13.8371    4.1269 C   0  0  0  0  0  0  0  0  0  0  0  0
    6.6687   14.1468    4.8071 C   0  0  2  0  0  0  0  0  0  0  0  0
    6.5124   15.2781    5.6153 O   0  0  0  0  0  0  0  0  0  0  0  0
    7.6729   14.4216    3.6800 C   0  0  2  0  0  0  0  0  0  0  0  0
    7.0959   15.2952    2.7626 O   0  0  0  0  0  0  0  0  0  0  0  0
    7.8579   13.0945    2.9622 C   0  0  1  0  0  0  0  0  0  0  0  0
    8.0804   12.0642    3.8620 O   0  0  0  0  0  0  0  0  0  0  0  0
    6.5491   12.7957    2.2258 C   0  0  1  0  0  0  0  0  0  0  0  0
    6.7521   11.7165    1.3643 N   0  0  0  0  0  0  0  0  0  0  0  0
    6.1203   10.4904    1.6183 C   0  0  0  0  0  3  0  0  0  0  0  0
    4.6481   10.5419    1.8913 C   0  0  0  0  0  0  0  0  0  0  0  0
    4.4689   10.4447    3.3935 C   0  0  2  0  0  0  0  0  0  0  0  0
    3.2218   10.8725    3.8107 O   0  0  0  0  0  0  0  0  0  0  0  0
    4.6746    9.1280    3.7588 O   0  0  0  0  0  0  0  0  0  0  0  0
    3.7671    8.8355    4.7776 C   0  0  1  0  0  0  0  0  0  0  0  0
    2.9266    7.7876    4.4450 O   0  0  0  0  0  0  0  0  0  0  0  0
    4.6153    8.4144    5.9823 C   0  0  2  0  0  0  0  0  0  0  0  0
    5.7129    7.7275    5.4721 O   0  0  0  0  0  0  0  0  0  0  0  0
    3.7517    7.4763    6.7953 C   0  0  0  0  0  3  0  0  0  0  0  0
    3.1505    8.3439    8.2448 S   0  0  0  0  0  0  0  0  0  0  0  0
    4.1940    8.0619    9.5707 O   0  0  0  0  0  0  0  0  0  0  0  0
    3.5648    8.3999   10.6758 O   0  0  0  0  0  0  0  0  0  0  0  0
    4.6885    9.0636   11.7633 S   0  0  0  0  0  0  0  0  0  0  0  0
  2  1  1  1
  2  3  1  0
  3  4  1  0
  4  5  1  1
  4  6  1  0
  6  7  1  6
  6  8  1  0
  8  9  1  1
  8 10  1  0
 10 11  1  1
 11 12  1  0
 12 13  1  0
 13 14  1  0
 14 15  1  6
 14 16  1  0
 16 17  1  0
 17 18  1  6
 17 19  1  0
 19 20  1  6
 19 21  1  0
 21 22  1  0
 22 23  1  0
 23 24  1  0
 24 25  1  0
 14  1  1  0
 10  2  1  0
M  RAD  2  12   2  21   2
M  END
>  <docking_score>  (2) 
-4.008

$$$$

     RDKit          3D

 25 26  0  0  0  0  0  0  0  0999 V2000
   17.4167   -2.3695   -5.2110 C   0  0  0  0  0  0  0  0  0  0  0  0
   18.1042   -1.2248   -5.9203 C   0  0  1  0  0  0  0  0  0  0  0  0
   19.0855   -0.5065   -5.0625 C   0  0  0  0  0  0  0  0  0  0  0  0
   20.3376   -1.3272   -4.8470 C   0  0  2  0  0  0  0  0  0  0  0  0
   21.2283   -0.6044   -4.0460 O   0  0  0  0  0  0  0  0  0  0  0  0
   20.9331   -1.5634   -6.2412 C   0  0  2  0  0  0  0  0  0  0  0  0
   20.9553   -0.3563   -6.9344 O   0  0  0  0  0  0  0  0  0  0  0  0
   19.9437   -2.4633   -6.9635 C   0  0  1  0  0  0  0  0  0  0  0  0
   19.5710   -3.5372   -6.1706 O   0  0  0  0  0  0  0  0  0  0  0  0
   18.6902   -1.6267   -7.2343 C   0  0  1  0  0  0  0  0  0  0  0  0
   17.8549   -2.3327   -8.1015 N   0  0  0  0  0  0  0  0  0  0  0  0
   16.6246   -2.8244   -7.6416 C   0  0  0  0  0  3  0  0  0  0  0  0
   15.7495   -1.8540   -6.9089 C   0  0  0  0  0  0  0  0  0  0  0  0
   15.9155   -2.1331   -5.4281 C   0  0  2  0  0  0  0  0  0  0  0  0
   15.4909   -1.0819   -4.6363 O   0  0  0  0  0  0  0  0  0  0  0  0
   15.2022   -3.2790   -5.1320 O   0  0  0  0  0  0  0  0  0  0  0  0
   16.0763   -4.1545   -4.4865 C   0  0  1  0  0  0  0  0  0  0  0  0
   15.7565   -4.3231   -3.1507 O   0  0  0  0  0  0  0  0  0  0  0  0
   15.9165   -5.5021   -5.1982 C   0  0  2  0  0  0  0  0  0  0  0  0
   14.5507   -5.7655   -5.2438 O   0  0  0  0  0  0  0  0  0  0  0  0
   16.6101   -6.5224   -4.3237 C   0  0  0  0  0  3  0  0  0  0  0  0
   18.2460   -6.8427   -4.9845 S   0  0  0  0  0  0  0  0  0  0  0  0
   18.7719   -8.4016   -4.5159 O   0  0  0  0  0  0  0  0  0  0  0  0
   19.9917   -8.3025   -4.0325 O   0  0  0  0  0  0  0  0  0  0  0  0
   20.3455   -6.6610   -3.7747 S   0  0  0  0  0  0  0  0  0  0  0  0
  2  1  1  1
  2  3  1  0
  3  4  1  0
  4  5  1  1
  4  6  1  0
  6  7  1  6
  6  8  1  0
  8  9  1  1
  8 10  1  0
 10 11  1  1
 11 12  1  0
 12 13  1  0
 13 14  1  0
 14 15  1  1
 14 16  1  0
 16 17  1  0
 17 18  1  1
 17 19  1  0
 19 20  1  1
 19 21  1  0
 21 22  1  0
 22 23  1  0
 23 24  1  0
 24 25  1  0
 14  1  1  0
 10  2  1  0
M  RAD  2  12   2  21   2
M  END
>  <docking_score>  (3) 
-3.5489999999999999

$$$$
