
     RDKit          3D

 28 28  0  0  0  0  0  0  0  0999 V2000
   20.7174   -7.5878   -2.9501 C   0  0  0  0  0  0  0  0  0  0  0  0
   20.2645   -7.1074   -4.3007 C   0  0  1  0  0  0  0  0  0  0  0  0
   19.1197   -7.9433   -4.8391 C   0  0  0  0  0  0  0  0  0  0  0  0
   18.1302   -7.0728   -5.5918 C   0  0  2  0  0  0  0  0  0  0  0  0
   18.8755   -6.2837   -6.4809 O   0  0  0  0  0  0  0  0  0  0  0  0
   17.4334   -6.1133   -4.6392 C   0  0  2  0  0  0  0  0  0  0  0  0
   16.9282   -5.0061   -5.2967 O   0  0  0  0  0  0  0  0  0  0  0  0
   18.4448   -5.6250   -3.6215 C   0  0  1  0  0  0  0  0  0  0  0  0
   18.4411   -6.3971   -2.4680 O   0  0  0  0  0  0  0  0  0  0  0  0
   19.8094   -5.6418   -4.3088 C   0  0  1  0  0  0  0  0  0  0  0  0
   20.6486   -4.7806   -3.6773 N   0  0  0  0  0  0  0  0  0  0  0  0
   19.9545   -3.5361   -3.2844 C   0  0  0  0  0  3  0  0  0  0  0  0
   20.8817   -2.5780   -4.1694 C   0  0  0  0  0  0  0  0  0  0  0  0
   19.7192   -1.9331   -5.1377 C   0  0  1  0  0  0  0  0  0  0  0  0
   19.5006   -0.6394   -4.4024 O   0  0  0  0  0  0  0  0  0  0  0  0
   20.6821   -1.3769   -6.2150 C   0  0  0  0  0  3  0  0  0  0  0  0
   19.8048   -1.4416   -7.3285 O   0  0  0  0  0  0  0  0  0  0  0  0
   18.6800   -1.7652   -6.8514 O   0  0  0  0  0  0  0  0  0  0  0  0
   18.1262   -2.4680   -7.8479 O   0  0  0  0  0  0  0  0  0  0  0  0
   16.9402   -2.3759   -8.4117 C   0  0  1  0  0  0  0  0  0  0  0  0
   16.9749   -4.1064   -8.7005 C   0  0  0  0  0  0  0  0  0  0  0  0
   15.7833   -2.2870   -7.9879 O   0  0  0  0  0  0  0  0  0  0  0  0
   15.3464   -1.6139   -6.9015 C   0  0  0  0  0  0  0  0  0  0  0  0
   15.0219   -2.5159   -5.9198 O   0  0  0  0  0  0  0  0  0  0  0  0
   14.1511   -2.0049   -5.1075 C   0  0  0  0  0  3  0  0  0  0  0  0
   14.7725   -1.2871   -3.9407 C   0  0  0  0  0  0  0  0  0  0  0  0
   13.9318    0.0256   -3.9627 C   0  0  0  0  0  3  0  0  0  0  0  0
   12.6531   -0.3549   -4.4048 O   0  0  0  0  0  0  0  0  0  0  0  0
  2  1  1  1
  2  3  1  0
  3  4  1  0
  4  5  1  6
  4  6  1  0
  6  7  1  6
  6  8  1  0
  8  9  1  1
  8 10  1  0
 10 11  1  1
 11 12  1  0
 12 13  1  0
 13 14  1  0
 14 15  1  1
 14 16  1  0
 16 17  1  0
 17 18  1  0
 18 19  1  0
 19 20  1  0
 20 21  1  6
 20 22  1  0
 22 23  1  0
 23 24  1  0
 24 25  1  0
 25 26  1  0
 26 27  1  0
 27 28  1  0
 10  2  1  0
M  RAD  4  12   2  16   2  25   2  27   2
M  END
>  <docking_score>  (1) 
-2.6419999999999999

$$$$

     RDKit          3D

 28 28  0  0  0  0  0  0  0  0999 V2000
   15.3874   -4.4046   -5.7685 C   0  0  0  0  0  0  0  0  0  0  0  0
   16.3525   -5.3972   -5.1826 C   0  0  1  0  0  0  0  0  0  0  0  0
   15.8074   -6.8110   -5.2394 C   0  0  0  0  0  0  0  0  0  0  0  0
   16.9193   -7.8009   -5.5345 C   0  0  2  0  0  0  0  0  0  0  0  0
   17.9694   -7.5099   -4.6507 O   0  0  0  0  0  0  0  0  0  0  0  0
   17.4624   -7.5881   -6.9392 C   0  0  2  0  0  0  0  0  0  0  0  0
   18.7468   -8.0825   -7.0785 O   0  0  0  0  0  0  0  0  0  0  0  0
   17.5075   -6.0990   -7.2182 C   0  0  1  0  0  0  0  0  0  0  0  0
   16.3568   -5.6502   -7.8517 O   0  0  0  0  0  0  0  0  0  0  0  0
   17.7220   -5.4024   -5.8753 C   0  0  1  0  0  0  0  0  0  0  0  0
   18.2618   -4.1732   -6.0804 N   0  0  0  0  0  0  0  0  0  0  0  0
   19.7208   -4.2515   -6.3044 C   0  0  0  0  0  3  0  0  0  0  0  0
   19.7800   -2.9726   -7.2644 C   0  0  0  0  0  0  0  0  0  0  0  0
   20.9206   -2.1074   -6.4549 C   0  0  1  0  0  0  0  0  0  0  0  0
   20.5863   -0.7388   -6.9814 O   0  0  0  0  0  0  0  0  0  0  0  0
   20.1374   -1.9936   -5.1241 C   0  0  0  0  0  3  0  0  0  0  0  0
   21.0546   -1.1755   -4.4147 O   0  0  0  0  0  0  0  0  0  0  0  0
   21.1563   -1.7004   -3.2694 O   0  0  0  0  0  0  0  0  0  0  0  0
   19.9915   -2.3477   -3.1352 O   0  0  0  0  0  0  0  0  0  0  0  0
   19.0874   -2.3053   -2.1794 C   0  0  1  0  0  0  0  0  0  0  0  0
   19.8070   -0.8119   -1.6044 C   0  0  0  0  0  0  0  0  0  0  0  0
   17.9006   -1.9671   -2.1230 O   0  0  0  0  0  0  0  0  0  0  0  0
   16.8432   -2.5425   -2.7353 C   0  0  0  0  0  0  0  0  0  0  0  0
   16.3503   -1.6771   -3.6791 O   0  0  0  0  0  0  0  0  0  0  0  0
   15.1646   -1.2740   -3.3461 C   0  0  0  0  0  3  0  0  0  0  0  0
   14.2314   -1.1324   -4.5174 C   0  0  0  0  0  0  0  0  0  0  0  0
   15.2400   -0.6355   -5.5975 C   0  0  0  0  0  3  0  0  0  0  0  0
   14.8928    0.7032   -5.8476 O   0  0  0  0  0  0  0  0  0  0  0  0
  2  1  1  6
  2  3  1  0
  3  4  1  0
  4  5  1  1
  4  6  1  0
  6  7  1  1
  6  8  1  0
  8  9  1  1
  8 10  1  0
 10 11  1  6
 11 12  1  0
 12 13  1  0
 13 14  1  0
 14 15  1  6
 14 16  1  0
 16 17  1  0
 17 18  1  0
 18 19  1  0
 19 20  1  0
 20 21  1  1
 20 22  1  0
 22 23  1  0
 23 24  1  0
 24 25  1  0
 25 26  1  0
 26 27  1  0
 27 28  1  0
 10  2  1  0
M  RAD  4  12   2  16   2  25   2  27   2
M  END
>  <docking_score>  (2) 
-2.4159999999999999

$$$$

     RDKit          3D

 28 28  0  0  0  0  0  0  0  0999 V2000
   16.6819   -3.4030   -3.7957 C   0  0  0  0  0  0  0  0  0  0  0  0
   16.9932   -4.8733   -3.8296 C   0  0  1  0  0  0  0  0  0  0  0  0
   15.8633   -5.6722   -4.4494 C   0  0  0  0  0  0  0  0  0  0  0  0
   16.4120   -6.8175   -5.2806 C   0  0  2  0  0  0  0  0  0  0  0  0
   17.3600   -7.4800   -4.4863 O   0  0  0  0  0  0  0  0  0  0  0  0
   17.1585   -6.2845   -6.4939 C   0  0  2  0  0  0  0  0  0  0  0  0
   18.0703   -7.2014   -6.9851 O   0  0  0  0  0  0  0  0  0  0  0  0
   17.9263   -5.0446   -6.0813 C   0  0  1  0  0  0  0  0  0  0  0  0
   17.2046   -3.8814   -6.3114 O   0  0  0  0  0  0  0  0  0  0  0  0
   18.2752   -5.2104   -4.6029 C   0  0  1  0  0  0  0  0  0  0  0  0
   19.3464   -4.4334   -4.2974 N   0  0  0  0  0  0  0  0  0  0  0  0
   18.9441   -3.2245   -3.5479 C   0  0  0  0  0  3  0  0  0  0  0  0
   20.4372   -2.8075   -3.1507 C   0  0  0  0  0  0  0  0  0  0  0  0
   20.6961   -1.6745   -4.3144 C   0  0  1  0  0  0  0  0  0  0  0  0
   19.4047   -1.8240   -5.0707 O   0  0  0  0  0  0  0  0  0  0  0  0
   20.2743   -0.4530   -3.4616 C   0  0  0  0  0  3  0  0  0  0  0  0
   21.0339    0.5395   -4.1336 O   0  0  0  0  0  0  0  0  0  0  0  0
   20.1993    1.1907   -4.8241 O   0  0  0  0  0  0  0  0  0  0  0  0
   20.8427    2.3415   -5.0596 O   0  0  0  0  0  0  0  0  0  0  0  0
   20.5135    3.3760   -5.8041 C   0  0  1  0  0  0  0  0  0  0  0  0
   21.3823    2.6509   -7.1451 C   0  0  0  0  0  0  0  0  0  0  0  0
   19.4940    3.7168   -6.4128 O   0  0  0  0  0  0  0  0  0  0  0  0
   18.6678    4.7488   -6.1364 C   0  0  0  0  0  0  0  0  0  0  0  0
   19.4028    5.7762   -5.6009 O   0  0  0  0  0  0  0  0  0  0  0  0
   18.9362    6.1064   -4.4378 C   0  0  0  0  0  3  0  0  0  0  0  0
   19.8755    6.9697   -3.6409 C   0  0  0  0  0  0  0  0  0  0  0  0
   21.1574    6.0843   -3.6979 C   0  0  0  0  0  3  0  0  0  0  0  0
   21.0414    5.1862   -2.6231 O   0  0  0  0  0  0  0  0  0  0  0  0
  2  1  1  6
  2  3  1  0
  3  4  1  0
  4  5  1  1
  4  6  1  0
  6  7  1  1
  6  8  1  0
  8  9  1  1
  8 10  1  0
 10 11  1  1
 11 12  1  0
 12 13  1  0
 13 14  1  0
 14 15  1  6
 14 16  1  0
 16 17  1  0
 17 18  1  0
 18 19  1  0
 19 20  1  0
 20 21  1  6
 20 22  1  0
 22 23  1  0
 23 24  1  0
 24 25  1  0
 25 26  1  0
 26 27  1  0
 27 28  1  0
 10  2  1  0
M  RAD  4  12   2  16   2  25   2  27   2
M  END
>  <docking_score>  (3) 
-1.7270000000000001

$$$$
