
     RDKit          3D

 29 30  0  0  0  0  0  0  0  0999 V2000
   16.3707   -4.2552   -1.0729 O   0  0  0  0  0  0  0  0  0  0  0  0
   16.8738   -3.3680   -1.7993 C   0  0  0  0  0  0  0  0  0  0  0  0
   16.1048   -2.7420   -2.7642 O   0  0  0  0  0  0  0  0  0  0  0  0
   18.2903   -2.9633   -1.6525 C   0  0  0  0  0  0  0  0  0  0  0  0
   19.2378   -4.0385   -2.1094 C   0  0  0  0  0  0  0  0  0  0  0  0
   18.5691   -5.0195   -3.0492 C   0  0  0  0  0  0  0  0  0  0  0  0
   19.6470   -5.8623   -3.6754 C   0  0  0  0  0  0  0  0  0  0  0  0
   19.1347   -7.2772   -3.8516 C   0  0  0  0  0  0  0  0  0  0  0  0
   18.8221   -7.5745   -5.2937 C   0  0  0  0  0  0  0  0  0  0  0  0
   18.5069   -6.2641   -5.9847 C   0  0  2  0  0  0  0  0  0  0  0  0
   17.1178   -6.4101   -6.5945 C   0  0  1  0  0  0  0  0  0  0  0  0
   16.7297   -5.0173   -7.1054 C   0  0  0  0  0  0  0  0  0  0  0  0
   16.3388   -4.2207   -5.8769 C   0  0  0  0  0  0  0  0  0  0  0  0
   15.4625   -3.0375   -6.2535 C   0  0  1  0  0  0  0  0  0  0  0  0
   14.2300   -3.2053   -5.6837 O   0  0  0  0  0  0  0  0  0  0  0  0
   16.1319   -1.8002   -5.8123 C   0  0  0  0  0  0  0  0  0  0  0  0
   17.3131   -1.5331   -6.4113 O   0  0  0  0  0  0  0  0  0  0  0  0
   18.5490   -1.4012   -5.8549 C   0  0  0  0  0  0  0  0  0  0  0  0
   19.3840   -2.5375   -5.7141 C   0  0  0  0  0  0  0  0  0  0  0  0
   20.6323   -2.4143   -5.1575 C   0  0  0  0  0  0  0  0  0  0  0  0
   21.1148   -1.1972   -4.7201 C   0  0  0  0  0  0  0  0  0  0  0  0
   20.3194   -0.0716   -4.8460 C   0  0  0  0  0  0  0  0  0  0  0  0
   20.8607    1.5090   -4.3144 Cl  0  0  0  0  0  0  0  0  0  0  0  0
   19.0823   -0.2349   -5.4055 C   0  0  0  0  0  0  0  0  0  0  0  0
   17.4642   -7.2073   -7.8584 C   0  0  2  0  0  0  0  0  0  0  0  0
   17.9484   -8.4646   -7.5427 O   0  0  0  0  0  0  0  0  0  0  0  0
   18.5979   -6.3651   -8.4073 C   0  0  0  0  0  0  0  0  0  0  0  0
   19.4126   -6.0629   -7.1894 C   0  0  2  0  0  0  0  0  0  0  0  0
   20.4942   -6.9174   -7.1376 O   0  0  0  0  0  0  0  0  0  0  0  0
  1  2  2  0
  2  3  1  0
  2  4  1  0
  4  5  1  0
  5  6  1  0
  6  7  1  0
  7  8  1  0
  8  9  1  0
 10  9  1  6
 10 11  1  0
 11 12  1  6
 12 13  1  0
 13 14  1  0
 14 15  1  1
 14 16  1  0
 16 17  1  0
 17 18  1  0
 18 19  2  0
 19 20  1  0
 20 21  2  0
 21 22  1  0
 22 23  1  0
 22 24  2  0
 11 25  1  0
 25 26  1  1
 25 27  1  0
 27 28  1  0
 28 29  1  1
 28 10  1  0
 24 18  1  0
M  END
>  <docking_score>  (1) 
-3.548

$$$$

     RDKit          3D

 29 30  0  0  0  0  0  0  0  0999 V2000
   15.1549   -4.5899   -6.4813 O   0  0  0  0  0  0  0  0  0  0  0  0
   14.9386   -4.5301   -7.7132 C   0  0  0  0  0  0  0  0  0  0  0  0
   14.7543   -5.6911   -8.4428 O   0  0  0  0  0  0  0  0  0  0  0  0
   14.8731   -3.2321   -8.4221 C   0  0  0  0  0  0  0  0  0  0  0  0
   15.7256   -2.1824   -7.7636 C   0  0  0  0  0  0  0  0  0  0  0  0
   14.9794   -1.4552   -6.6649 C   0  0  0  0  0  0  0  0  0  0  0  0
   16.0003   -0.8517   -5.7388 C   0  0  0  0  0  0  0  0  0  0  0  0
   16.0355   -1.6464   -4.4494 C   0  0  0  0  0  0  0  0  0  0  0  0
   17.3027   -1.3902   -3.6785 C   0  0  0  0  0  0  0  0  0  0  0  0
   18.0971   -2.6793   -3.6410 C   0  0  2  0  0  0  0  0  0  0  0  0
   18.3351   -3.0081   -2.1720 C   0  0  1  0  0  0  0  0  0  0  0  0
   18.9524   -4.4115   -2.1454 C   0  0  0  0  0  0  0  0  0  0  0  0
   17.7939   -5.3755   -2.3042 C   0  0  0  0  0  0  0  0  0  0  0  0
   17.8420   -6.0632   -3.6587 C   0  0  1  0  0  0  0  0  0  0  0  0
   17.2046   -5.2723   -4.5752 O   0  0  0  0  0  0  0  0  0  0  0  0
   19.2526   -6.3159   -4.0054 C   0  0  0  0  0  0  0  0  0  0  0  0
   19.4959   -6.5548   -5.3127 O   0  0  0  0  0  0  0  0  0  0  0  0
   19.4111   -5.7039   -6.3726 C   0  0  0  0  0  0  0  0  0  0  0  0
   18.3762   -5.8668   -7.3268 C   0  0  0  0  0  0  0  0  0  0  0  0
   18.2804   -5.0127   -8.3966 C   0  0  0  0  0  0  0  0  0  0  0  0
   19.1753   -3.9780   -8.5812 C   0  0  0  0  0  0  0  0  0  0  0  0
   20.1956   -3.7968   -7.6639 C   0  0  0  0  0  0  0  0  0  0  0  0
   21.3709   -2.5063   -7.8288 Cl  0  0  0  0  0  0  0  0  0  0  0  0
   20.2576   -4.6681   -6.6116 C   0  0  0  0  0  0  0  0  0  0  0  0
   19.5043   -2.0612   -1.8731 C   0  0  2  0  0  0  0  0  0  0  0  0
   19.1179   -0.7366   -1.9781 O   0  0  0  0  0  0  0  0  0  0  0  0
   20.4276   -2.3990   -3.0261 C   0  0  0  0  0  0  0  0  0  0  0  0
   19.4963   -2.4621   -4.1954 C   0  0  2  0  0  0  0  0  0  0  0  0
   19.5657   -1.2789   -4.9011 O   0  0  0  0  0  0  0  0  0  0  0  0
  1  2  2  0
  2  3  1  0
  2  4  1  0
  4  5  1  0
  5  6  1  0
  6  7  1  0
  7  8  1  0
  8  9  1  0
 10  9  1  1
 10 11  1  0
 11 12  1  6
 12 13  1  0
 13 14  1  0
 14 15  1  6
 14 16  1  0
 16 17  1  0
 17 18  1  0
 18 19  2  0
 19 20  1  0
 20 21  2  0
 21 22  1  0
 22 23  1  0
 22 24  2  0
 11 25  1  0
 25 26  1  6
 25 27  1  0
 27 28  1  0
 28 29  1  1
 28 10  1  0
 24 18  1  0
M  END
>  <docking_score>  (2) 
-2.6789999999999998

$$$$

     RDKit          3D

 29 30  0  0  0  0  0  0  0  0999 V2000
    9.4441   14.7886    3.8720 O   0  0  0  0  0  0  0  0  0  0  0  0
    8.8486   14.7411    2.7716 C   0  0  0  0  0  0  0  0  0  0  0  0
    9.5229   15.0490    1.6034 O   0  0  0  0  0  0  0  0  0  0  0  0
    7.4211   14.3587    2.6837 C   0  0  0  0  0  0  0  0  0  0  0  0
    7.2244   13.0677    1.9373 C   0  0  0  0  0  0  0  0  0  0  0  0
    7.9749   11.9216    2.5822 C   0  0  0  0  0  0  0  0  0  0  0  0
    6.9576   10.9566    3.1281 C   0  0  0  0  0  0  0  0  0  0  0  0
    5.7594   10.9179    2.2016 C   0  0  0  0  0  0  0  0  0  0  0  0
    4.4663   10.9525    2.9713 C   0  0  0  0  0  0  0  0  0  0  0  0
    4.5161   12.1335    3.9183 C   0  0  2  0  0  0  0  0  0  0  0  0
    4.1688   11.6025    5.3040 C   0  0  1  0  0  0  0  0  0  0  0  0
    4.4263   12.7582    6.2785 C   0  0  0  0  0  0  0  0  0  0  0  0
    4.4084   12.1426    7.6633 C   0  0  0  0  0  0  0  0  0  0  0  0
    3.8401   13.1162    8.6825 C   0  0  1  0  0  0  0  0  0  0  0  0
    2.9401   13.9332    8.0546 O   0  0  0  0  0  0  0  0  0  0  0  0
    3.2375   12.3425    9.7835 C   0  0  0  0  0  0  0  0  0  0  0  0
    4.0547   11.4464   10.3792 O   0  0  0  0  0  0  0  0  0  0  0  0
    3.7820   10.5699   11.3850 C   0  0  0  0  0  0  0  0  0  0  0  0
    3.2659    9.2857   11.0808 C   0  0  0  0  0  0  0  0  0  0  0  0
    2.9908    8.3941   12.0871 C   0  0  0  0  0  0  0  0  0  0  0  0
    3.2031    8.7097   13.4141 C   0  0  0  0  0  0  0  0  0  0  0  0
    3.7065    9.9574   13.7385 C   0  0  0  0  0  0  0  0  0  0  0  0
    4.0034   10.4329   15.3998 Cl  0  0  0  0  0  0  0  0  0  0  0  0
    3.9679   10.8176   12.7081 C   0  0  0  0  0  0  0  0  0  0  0  0
    2.6415   11.5252    5.1845 C   0  0  2  0  0  0  0  0  0  0  0  0
    2.2580   10.5909    4.2385 O   0  0  0  0  0  0  0  0  0  0  0  0
    2.3406   12.9135    4.6575 C   0  0  0  0  0  0  0  0  0  0  0  0
    3.3931   13.1122    3.6129 C   0  0  2  0  0  0  0  0  0  0  0  0
    2.8545   12.8668    2.3669 O   0  0  0  0  0  0  0  0  0  0  0  0
  1  2  2  0
  2  3  1  0
  2  4  1  0
  4  5  1  0
  5  6  1  0
  6  7  1  0
  7  8  1  0
  8  9  1  0
 10  9  1  6
 10 11  1  0
 11 12  1  1
 12 13  1  0
 13 14  1  0
 14 15  1  6
 14 16  1  0
 16 17  1  0
 17 18  1  0
 18 19  2  0
 19 20  1  0
 20 21  2  0
 21 22  1  0
 22 23  1  0
 22 24  2  0
 11 25  1  0
 25 26  1  6
 25 27  1  0
 27 28  1  0
 28 29  1  6
 28 10  1  0
 24 18  1  0
M  END
>  <docking_score>  (3) 
-2.5950000000000002

$$$$
