
     RDKit          3D

 53 53  0  0  0  0  0  0  0  0999 V2000
   13.4055   -3.2464   -6.8202 C   0  0  0  0  0  0  0  0  0  0  0  0
   14.6732   -3.6382   -7.1873 O   0  0  0  0  0  0  0  0  0  0  0  0
   15.0864   -2.9102   -8.4078 C   0  0  0  0  0  3  0  0  0  0  0  0
   15.9370   -1.8994   -7.8042 O   0  0  0  0  0  0  0  0  0  0  0  0
   15.1518   -1.5569   -6.6660 C   0  0  2  0  0  0  0  0  0  0  0  0
   15.5567   -0.0375   -6.3686 C   0  0  0  0  0  0  0  0  0  0  0  0
   14.9533    0.2309   -5.0191 C   0  0  0  0  0  3  0  0  0  0  0  0
   15.8082   -2.1160   -5.3681 C   0  0  1  0  0  0  0  0  0  0  0  0
   14.6618   -2.3690   -4.4245 C   0  0  0  0  0  3  0  0  0  0  0  0
   13.4100   -1.7298   -4.8700 C   0  0  0  0  0  0  0  0  0  0  0  0
   13.5491   -0.2089   -4.9181 C   0  0  1  0  0  0  0  0  0  0  0  0
   12.8851    0.3743   -3.8231 O   0  0  0  0  0  0  0  0  0  0  0  0
   16.7243   -3.2347   -5.4523 C   0  0  0  0  0  0  0  0  0  0  0  0
   18.1861   -2.9919   -5.5575 C   0  0  2  0  0  0  0  0  0  0  0  0
   18.7150   -1.5343   -4.9425 S   0  0  2  0  0  0  0  0  0  0  0  0
   17.5853   -2.0696   -3.0268 C   0  0  0  0  0  2  0  0  0  0  0  0
   19.1094   -0.4286   -4.6676 C   0  0  0  0  0  3  0  0  0  0  0  0
   20.3906    0.3219   -4.2256 C   0  0  0  0  0  0  0  0  0  0  0  0
   20.1122    1.4245   -3.4756 O   0  0  0  0  0  0  0  0  0  0  0  0
   21.0731    2.3772   -3.8782 C   0  0  0  0  0  3  0  0  0  0  0  0
   20.6181    3.0901   -5.0973 C   0  0  1  0  0  0  0  0  0  0  0  0
   20.8889    2.4244   -6.2704 O   0  0  0  0  0  0  0  0  0  0  0  0
   19.1943    3.5425   -4.9582 C   0  0  0  0  0  3  0  0  0  0  0  0
   18.8128    4.1051   -6.1773 O   0  0  0  0  0  0  0  0  0  0  0  0
   17.5697    4.7710   -6.0382 C   0  0  0  0  0  2  0  0  0  0  0  0
   18.6433   -3.2654   -6.8218 O   0  0  0  0  0  0  0  0  0  0  0  0
   17.7693   -4.0814   -7.5028 C   0  0  1  0  0  0  0  0  0  0  0  0
   18.3417   -5.0474   -8.4593 C   0  0  0  0  0  0  0  0  0  0  0  0
   19.6865   -5.0746   -8.6422 O   0  0  0  0  0  0  0  0  0  0  0  0
   16.7567   -4.7283   -6.6237 C   0  0  0  0  0  3  0  0  0  0  0  0
   16.2576   -5.9006   -7.2307 O   0  0  0  0  0  0  0  0  0  0  0  0
   17.1530   -6.8598   -7.0145 O   0  0  0  0  0  0  0  0  0  0  0  0
   18.3604   -6.3297   -6.7710 C   0  0  0  0  0  3  0  0  0  0  0  0
   19.4555   -6.7030   -7.6262 O   0  0  0  0  0  0  0  0  0  0  0  0
   20.4551   -6.5959   -6.6670 O   0  0  0  0  0  0  0  0  0  0  0  0
   21.1246   -7.8626   -6.7827 C   0  0  2  0  0  0  0  0  0  0  0  0
   20.1706   -8.6141   -7.5733 O   0  0  0  0  0  0  0  0  0  0  0  0
   20.8431   -8.5999   -5.3616 C   0  0  0  0  0  3  0  0  0  0  0  0
   19.6598   -9.2839   -5.5805 O   0  0  0  0  0  0  0  0  0  0  0  0
   18.6311   -8.6917   -4.8605 C   0  0  2  0  0  0  0  0  0  0  0  0
   19.0579   -7.2504   -4.5136 C   0  0  0  0  0  0  0  0  0  0  0  0
   18.6161   -9.3828   -3.4520 C   0  0  0  0  0  3  0  0  0  0  0  0
   18.3477   -8.5592   -2.5200 O   0  0  0  0  0  0  0  0  0  0  0  0
   18.8550   -7.5552   -2.0412 O   0  0  0  0  0  0  0  0  0  0  0  0
   17.8645   -6.6213   -1.6392 C   0  0  0  0  0  0  0  0  0  0  0  0
   18.3335   -5.4177   -2.5941 C   0  0  2  0  0  0  0  0  0  0  0  0
   19.9746   -5.0951   -2.0180 S   0  0  0  0  0  0  0  0  0  0  0  0
   20.8310   -3.9814   -2.9782 O   0  0  0  0  0  0  0  0  0  0  0  0
   21.0439   -2.8920   -2.0576 C   0  0  0  0  0  0  0  0  0  0  0  0
   20.2105   -3.2780   -0.8127 C   0  0  0  0  0  0  0  0  0  0  0  0
   17.2293   -4.3830   -2.2826 C   0  0  0  0  0  0  0  0  0  0  0  0
   16.0339   -4.9533   -2.9089 C   0  0  0  0  0  0  0  0  0  0  0  0
   14.9416   -5.0418   -2.6063 O   0  0  0  0  0  0  0  0  0  0  0  0
  1  2  1  0
  2  3  1  0
  3  4  1  0
  5  4  1  6
  5  6  1  0
  6  7  1  0
  5  8  1  0
  8  9  1  0
  9 10  1  0
 10 11  1  0
 11 12  1  1
  8 13  1  6
 14 13  1  6
 14 15  1  0
 15 16  1  0
 15 17  1  0
 17 18  1  0
 18 19  1  0
 19 20  1  0
 20 21  1  0
 21 22  1  6
 21 23  1  0
 23 24  1  0
 24 25  1  0
 14 26  1  0
 26 27  1  0
 27 28  1  1
 28 29  1  0
 27 30  1  0
 30 31  1  0
 31 32  1  0
 32 33  1  0
 33 34  1  0
 34 35  1  0
 35 36  1  0
 36 37  1  6
 36 38  1  0
 38 39  1  0
 39 40  1  0
 40 41  1  1
 40 42  1  0
 42 43  1  0
 43 44  1  0
 44 45  1  0
 46 45  1  1
 46 47  1  0
 47 48  1  0
 48 49  1  0
 49 50  1  0
 46 51  1  0
 51 52  1  0
 52 53  2  0
 11  7  1  0
M  RAD  8   3   2   7   2   9   2  16   3  17   2  20   2  23   2  25   3
M  RAD  4  30   2  33   2  38   2  42   2
M  END
>  <docking_score>  (1) 
3.8420000000000001

$$$$
