
     RDKit          3D

 31 33  0  0  0  0  0  0  0  0999 V2000
    2.9441   14.4781   10.4207 O   0  0  0  0  0  0  0  0  0  0  0  0
    3.4411   13.9650   11.4334 C   0  0  0  0  0  0  0  0  0  0  0  0
    2.9278   12.7777   12.0863 C   0  0  0  0  0  0  0  0  0  0  0  0
    3.8121   11.6433   12.3539 C   0  0  0  0  0  0  0  0  0  0  0  0
    4.0861   10.6278   11.3460 C   0  0  1  0  0  0  0  0  0  0  0  0
    3.2475    9.4698   11.3799 C   0  0  0  0  0  0  0  0  0  0  0  0
    2.9127    8.8862   10.2155 C   0  0  0  0  0  0  0  0  0  0  0  0
    3.3653    9.3829    8.9379 C   0  0  0  0  0  0  0  0  0  0  0  0
    3.1916    9.0116    7.6844 C   0  0  0  0  0  0  0  0  0  0  0  0
    3.9063    9.9117    6.7863 C   0  0  0  0  0  0  0  0  0  0  0  0
    3.9612    9.8309    5.3027 C   0  0  0  0  0  0  0  0  0  0  0  0
    4.8246    9.7315    4.4378 C   0  0  0  0  0  0  0  0  0  0  0  0
    4.4785    9.6805    3.0947 C   0  0  0  0  0  0  0  0  0  0  0  0
    3.3797    9.7274    2.7097 C   0  0  0  0  0  0  0  0  0  0  0  0
    2.4025    9.7002    1.1204 Cl  0  0  0  0  0  0  0  0  0  0  0  0
    2.4102    9.8724    4.3022 S   0  0  0  0  0  0  0  0  0  0  0  0
    4.4843   10.7905    7.5238 N   0  0  0  0  0  0  0  0  0  0  0  0
    4.2187   10.5624    8.8944 C   0  0  0  0  0  0  0  0  0  0  0  0
    4.5397   11.1283   10.0575 C   0  0  0  0  0  0  0  0  0  0  0  0
    4.6093   14.6068   11.9874 N   0  0  0  0  0  0  0  0  0  0  0  0
    5.1503   15.7639   11.3940 C   0  0  0  0  0  0  0  0  0  0  0  0
    6.4505   15.9575   11.3234 C   0  0  0  0  0  0  0  0  0  0  0  0
    7.3390   14.9512   11.8722 C   0  0  0  0  0  0  0  0  0  0  0  0
    8.4680   14.6729   11.2693 C   0  0  0  0  0  0  0  0  0  0  0  0
    8.8299   15.3396   10.0928 N   0  0  0  0  0  0  0  0  0  0  0  0
   10.1222   15.1439    9.5044 C   0  0  0  0  0  0  0  0  0  0  0  0
   10.1580   15.7865    8.1535 C   0  0  0  0  0  0  0  0  0  0  0  0
    9.3458   13.6625   11.8306 C   0  0  0  0  0  0  0  0  0  0  0  0
   10.2078   13.9394   12.7647 C   0  0  0  0  0  0  0  0  0  0  0  0
   10.3260   15.2871   13.2887 C   0  0  0  0  0  0  0  0  0  0  0  0
   11.5000   15.6775   13.5847 O   0  0  0  0  0  0  0  0  0  0  0  0
  1  2  2  0
  2  3  1  0
  3  4  1  0
  5  4  1  6
  5  6  1  0
  6  7  2  0
  7  8  1  0
  8  9  2  0
  9 10  1  0
 10 11  1  0
 11 12  2  0
 12 13  1  0
 13 14  2  0
 14 15  1  0
 14 16  1  0
 10 17  2  0
 17 18  1  0
 18 19  2  0
  2 20  1  0
 20 21  1  0
 21 22  2  3
 22 23  1  0
 23 24  2  3
 24 25  1  0
 25 26  1  0
 26 27  1  0
 24 28  1  0
 28 29  2  3
 29 30  1  0
 30 31  2  0
 19  5  1  0
 18  8  1  0
 16 11  1  0
M  END
>  <docking_score>  (1) 
-2.8220000000000001

$$$$

     RDKit          3D

 31 33  0  0  0  0  0  0  0  0999 V2000
   19.5620   -5.3488   -6.0634 O   0  0  0  0  0  0  0  0  0  0  0  0
   19.7342   -4.1645   -5.7415 C   0  0  0  0  0  0  0  0  0  0  0  0
   20.1082   -3.7226   -4.4132 C   0  0  0  0  0  0  0  0  0  0  0  0
   20.9885   -2.5667   -4.2418 C   0  0  0  0  0  0  0  0  0  0  0  0
   20.5188   -1.3251   -3.6417 C   0  0  1  0  0  0  0  0  0  0  0  0
   21.1849   -0.9179   -2.4434 C   0  0  0  0  0  0  0  0  0  0  0  0
   21.3699    0.3966   -2.2276 C   0  0  0  0  0  0  0  0  0  0  0  0
   20.9241    1.4077   -3.1565 C   0  0  0  0  0  0  0  0  0  0  0  0
   20.9753    2.7252   -3.1878 C   0  0  0  0  0  0  0  0  0  0  0  0
   20.3483    3.2271   -4.4054 C   0  0  0  0  0  0  0  0  0  0  0  0
   20.2024    4.6503   -4.8103 C   0  0  0  0  0  0  0  0  0  0  0  0
   20.1940    5.7464   -4.2608 C   0  0  0  0  0  0  0  0  0  0  0  0
   20.0281    6.9083   -5.0016 C   0  0  0  0  0  0  0  0  0  0  0  0
   19.8898    6.9213   -6.1585 C   0  0  0  0  0  0  0  0  0  0  0  0
   19.6437    8.1147   -7.5716 Cl  0  0  0  0  0  0  0  0  0  0  0  0
   19.9615    5.1017   -6.5842 S   0  0  0  0  0  0  0  0  0  0  0  0
   19.9418    2.2017   -5.0639 N   0  0  0  0  0  0  0  0  0  0  0  0
   20.2460    1.0014   -4.3798 C   0  0  0  0  0  0  0  0  0  0  0  0
   20.0721   -0.3049   -4.5777 C   0  0  0  0  0  0  0  0  0  0  0  0
   19.5445   -3.1711   -6.7713 N   0  0  0  0  0  0  0  0  0  0  0  0
   19.1800   -3.5443   -8.0796 C   0  0  0  0  0  0  0  0  0  0  0  0
   17.9252   -3.5215   -8.4774 C   0  0  0  0  0  0  0  0  0  0  0  0
   16.9012   -3.1016   -7.5403 C   0  0  0  0  0  0  0  0  0  0  0  0
   15.8125   -3.8150   -7.3940 C   0  0  0  0  0  0  0  0  0  0  0  0
   15.6239   -4.9864   -8.1370 N   0  0  0  0  0  0  0  0  0  0  0  0
   15.6216   -6.2698   -7.4988 C   0  0  0  0  0  0  0  0  0  0  0  0
   16.6898   -6.3083   -6.4516 C   0  0  0  0  0  0  0  0  0  0  0  0
   14.7966   -3.3808   -6.4529 C   0  0  0  0  0  0  0  0  0  0  0  0
   15.0928   -3.0011   -5.2444 C   0  0  0  0  0  0  0  0  0  0  0  0
   16.4690   -2.9966   -4.7850 C   0  0  0  0  0  0  0  0  0  0  0  0
   16.9841   -1.8566   -4.5544 O   0  0  0  0  0  0  0  0  0  0  0  0
  1  2  2  0
  2  3  1  0
  3  4  1  0
  5  4  1  6
  5  6  1  0
  6  7  2  0
  7  8  1  0
  8  9  2  0
  9 10  1  0
 10 11  1  0
 11 12  2  0
 12 13  1  0
 13 14  2  0
 14 15  1  0
 14 16  1  0
 10 17  2  0
 17 18  1  0
 18 19  2  0
  2 20  1  0
 20 21  1  0
 21 22  2  3
 22 23  1  0
 23 24  2  3
 24 25  1  0
 25 26  1  0
 26 27  1  0
 24 28  1  0
 28 29  2  3
 29 30  1  0
 30 31  2  0
 19  5  1  0
 18  8  1  0
 16 11  1  0
M  END
>  <docking_score>  (2) 
-0.13300000000000001

$$$$

     RDKit          3D

 31 33  0  0  0  0  0  0  0  0999 V2000
    2.5451    6.9630    8.8555 O   0  0  0  0  0  0  0  0  0  0  0  0
    2.9286    8.0300    8.3552 C   0  0  0  0  0  0  0  0  0  0  0  0
    2.8889    8.3317    6.9385 C   0  0  0  0  0  0  0  0  0  0  0  0
    3.2768    9.6573    6.4563 C   0  0  0  0  0  0  0  0  0  0  0  0
    4.6733   10.0347    6.2849 C   0  0  1  0  0  0  0  0  0  0  0  0
    5.5258    9.0378    5.7150 C   0  0  0  0  0  0  0  0  0  0  0  0
    6.5177    9.4334    4.8974 C   0  0  0  0  0  0  0  0  0  0  0  0
    6.7527   10.8205    4.5741 C   0  0  0  0  0  0  0  0  0  0  0  0
    7.6279   11.4624    3.8248 C   0  0  0  0  0  0  0  0  0  0  0  0
    7.3796   12.8989    3.8749 C   0  0  0  0  0  0  0  0  0  0  0  0
    8.1466   13.9602    3.1706 C   0  0  0  0  0  0  0  0  0  0  0  0
    8.7188   15.0037    3.4656 C   0  0  0  0  0  0  0  0  0  0  0  0
    9.3561   15.7611    2.4926 C   0  0  0  0  0  0  0  0  0  0  0  0
    9.3896   15.4668    1.3656 C   0  0  0  0  0  0  0  0  0  0  0  0
   10.0606   16.0717   -0.2670 Cl  0  0  0  0  0  0  0  0  0  0  0  0
    8.4285   13.8627    1.3487 S   0  0  0  0  0  0  0  0  0  0  0  0
    6.3692   13.0745    4.6486 N   0  0  0  0  0  0  0  0  0  0  0  0
    5.8885   11.8420    5.1493 C   0  0  0  0  0  0  0  0  0  0  0  0
    4.9103   11.4320    5.9563 C   0  0  0  0  0  0  0  0  0  0  0  0
    3.4478    9.0285    9.2591 N   0  0  0  0  0  0  0  0  0  0  0  0
    3.5104    8.7883   10.6455 C   0  0  0  0  0  0  0  0  0  0  0  0
    4.2238    9.5532   11.4450 C   0  0  0  0  0  0  0  0  0  0  0  0
    4.9595   10.6662   10.8765 C   0  0  0  0  0  0  0  0  0  0  0  0
    4.9662   11.8271   11.4829 C   0  0  0  0  0  0  0  0  0  0  0  0
    4.2664   12.0080   12.6818 N   0  0  0  0  0  0  0  0  0  0  0  0
    3.5995   13.2449   12.9646 C   0  0  0  0  0  0  0  0  0  0  0  0
    2.4506   12.9923   13.8894 C   0  0  0  0  0  0  0  0  0  0  0  0
    5.7064   12.9314   10.9007 C   0  0  0  0  0  0  0  0  0  0  0  0
    5.1219   13.8650   10.2086 C   0  0  0  0  0  0  0  0  0  0  0  0
    3.6878   13.8379    9.9896 C   0  0  0  0  0  0  0  0  0  0  0  0
    2.9935   13.2320   10.8665 O   0  0  0  0  0  0  0  0  0  0  0  0
  1  2  2  0
  2  3  1  0
  3  4  1  0
  5  4  1  6
  5  6  1  0
  6  7  2  0
  7  8  1  0
  8  9  2  0
  9 10  1  0
 10 11  1  0
 11 12  2  0
 12 13  1  0
 13 14  2  0
 14 15  1  0
 14 16  1  0
 10 17  2  0
 17 18  1  0
 18 19  2  0
  2 20  1  0
 20 21  1  0
 21 22  2  3
 22 23  1  0
 23 24  2  3
 24 25  1  0
 25 26  1  0
 26 27  1  0
 24 28  1  0
 28 29  2  3
 29 30  1  0
 30 31  2  0
 19  5  1  0
 18  8  1  0
 16 11  1  0
M  END
>  <docking_score>  (3) 
0.027

$$$$
