
     RDKit          3D

 47 47  0  0  0  0  0  0  0  0999 V2000
   11.6015   12.4292   11.0108 O   0  0  0  0  0  0  0  0  0  0  0  0
   11.9511   11.1075   11.3550 C   0  0  0  0  0  0  0  0  0  0  0  0
   13.0356   11.2228   12.4246 C   0  0  0  0  0  3  0  0  0  0  0  0
   12.6596   12.1680   13.4314 N   0  0  0  0  0  0  0  0  0  0  0  0
   12.3947   13.5004   12.8666 C   0  0  2  0  0  0  0  0  0  0  0  0
   13.0037   14.4998   13.8275 C   0  0  0  0  0  0  0  0  0  0  0  0
   14.0838   13.9292   14.4965 O   0  0  0  0  0  0  0  0  0  0  0  0
   10.8926   13.6640   12.8397 C   0  0  1  0  0  0  0  0  0  0  0  0
   10.4011   14.1111   14.0659 O   0  0  0  0  0  0  0  0  0  0  0  0
   10.4334   14.5390   11.6847 C   0  0  2  0  0  0  0  0  0  0  0  0
    9.4389   15.4019   12.1993 O   0  0  0  0  0  0  0  0  0  0  0  0
    9.8309   13.8121   10.6759 O   0  0  0  0  0  0  0  0  0  0  0  0
   10.3061   12.5139   10.5515 C   0  0  2  0  0  0  0  0  0  0  0  0
    9.4141   11.5575   11.2052 N   0  0  2  0  0  4  0  0  0  0  0  0
    8.1468   11.8939   10.8495 O   0  0  0  0  0  0  0  0  0  0  0  0
    9.5494   11.5885   12.5496 F   0  0  0  0  0  0  0  0  0  0  0  0
    9.7511   10.2514   10.7703 C   0  0  0  0  0  0  0  0  0  0  0  0
    9.7533    9.9691    9.5298 N   0  0  0  0  0  4  0  0  0  0  0  0
    9.3584    9.4892    8.0606 S   0  0  0  0  0  0  0  0  0  0  0  0
    7.9865   10.1613    7.2746 O   0  0  0  0  0  0  0  0  0  0  0  0
    7.8752    9.8057    5.9560 C   0  0  2  0  0  0  0  0  0  0  0  0
    9.0752   10.0767    5.3118 O   0  0  0  0  0  0  0  0  0  0  0  0
    6.7606   10.4316    5.1979 C   0  0  2  0  0  0  0  0  0  0  0  0
    6.1557   11.9763    5.8612 S   0  0  0  0  0  0  0  0  0  0  0  0
    5.4964    9.3109    4.6154 S   0  0  0  0  0  0  0  0  0  0  0  0
    3.8911   10.1831    4.6114 C   0  0  2  0  0  0  0  0  0  0  0  0
    3.5187   10.5739    6.0478 C   0  0  0  0  0  0  0  0  0  0  0  0
    3.4253    9.1008    7.0704 S   0  0  0  0  0  0  0  0  0  0  0  0
    2.6531    9.4972    8.3967 N   0  0  0  0  0  3  0  0  0  0  0  0
    2.3535    8.3238    9.6627 S   0  0  0  0  0  0  0  0  0  0  0  0
    3.4502    8.5910   10.9621 O   0  0  0  0  0  0  0  0  0  0  0  0
    2.8186    9.1666   11.9682 O   0  0  0  0  0  0  0  0  0  0  0  0
    3.6319    9.5279   12.9270 O   0  0  0  0  0  0  0  0  0  0  0  0
    4.9165    9.5032   12.5651 N   0  0  0  0  0  2  0  0  0  0  0  0
    5.7936   10.8615   13.3158 S   0  0  0  0  0  0  0  0  0  0  0  0
    5.3209   12.3914   13.0356 N   0  0  0  0  0  3  0  0  0  0  0  0
    6.0486   13.3899   13.6508 O   0  0  0  0  0  0  0  0  0  0  0  0
    5.3488   14.4715   14.2500 C   0  0  0  0  0  3  0  0  0  0  0  0
    5.8780   16.0719   13.5811 S   0  0  0  0  0  0  0  0  0  0  0  0
    2.8872    9.2626    4.0546 C   0  0  0  0  0  0  0  0  0  0  0  0
    3.2200    8.2081    3.4291 N   0  0  0  0  0  4  0  0  0  0  0  0
    2.2687    7.3323    2.8992 N   0  0  0  0  0  1  0  0  0  0  0  0
    4.5418    7.9090    3.2649 O   0  0  0  0  0  0  0  0  0  0  0  0
    5.0712    6.3616    2.7031 S   0  0  0  0  0  0  0  0  0  0  0  0
    5.7631    5.4403    4.0802 C   0  0  0  0  0  3  0  0  0  0  0  0
    6.3968    6.2835    5.1348 C   0  0  0  0  0  0  0  0  0  0  0  0
    7.5410    5.7033    5.6517 O   0  0  0  0  0  1  0  0  0  0  0  0
  1  2  1  0
  2  3  1  0
  3  4  1  0
  4  5  1  0
  5  6  1  1
  6  7  1  0
  5  8  1  0
  8  9  1  1
  8 10  1  0
 10 11  1  1
 10 12  1  0
 13 12  1  1
 13 14  1  0
 14 15  1  1
 14 16  1  0
 14 17  1  0
 17 18  2  0
 18 19  2  0
 19 20  1  0
 20 21  1  0
 21 22  1  6
 21 23  1  0
 23 24  1  1
 23 25  1  0
 25 26  1  0
 26 27  1  1
 27 28  1  0
 28 29  2  3
 29 30  1  0
 30 31  1  0
 31 32  1  0
 32 33  1  0
 33 34  1  0
 34 35  1  0
 35 36  2  3
 36 37  1  0
 37 38  1  0
 38 39  1  0
 26 40  1  0
 40 41  2  3
 41 42  1  0
 41 43  1  0
 43 44  1  0
 44 45  1  0
 45 46  1  0
 46 47  1  0
 13  1  1  0
M  CHG  8  14   1  18   1  29   1  34   1  36   1  41   1  42   1  47  -1
M  RAD  7   3   2  29   2  34   3  36   2  38   2  42   2  45   2
M  END
>  <docking_score>  (1) 
20.119

$$$$

     RDKit          3D

 47 47  0  0  0  0  0  0  0  0999 V2000
    6.8921   -1.6155   -4.6335 O   0  0  0  0  0  0  0  0  0  0  0  0
    7.6428   -2.6598   -5.2110 C   0  0  0  0  0  0  0  0  0  0  0  0
    7.0085   -2.9316   -6.5739 C   0  0  0  0  0  3  0  0  0  0  0  0
    6.7844   -1.7096   -7.2842 N   0  0  0  0  0  0  0  0  0  0  0  0
    5.9282   -0.7813   -6.5296 C   0  0  2  0  0  0  0  0  0  0  0  0
    4.9801   -0.1624   -7.5351 C   0  0  0  0  0  0  0  0  0  0  0  0
    4.9830   -0.8986   -8.7174 O   0  0  0  0  0  0  0  0  0  0  0  0
    6.8418    0.2815   -5.9642 C   0  0  1  0  0  0  0  0  0  0  0  0
    7.0869    1.2957   -6.8896 O   0  0  0  0  0  0  0  0  0  0  0  0
    6.3343    0.8255   -4.6387 C   0  0  2  0  0  0  0  0  0  0  0  0
    6.5048    2.2282   -4.6833 O   0  0  0  0  0  0  0  0  0  0  0  0
    7.0779    0.3792   -3.5629 O   0  0  0  0  0  0  0  0  0  0  0  0
    7.6410   -0.8762   -3.7452 C   0  0  2  0  0  0  0  0  0  0  0  0
    9.0449   -0.7755   -4.1411 N   0  0  2  0  0  4  0  0  0  0  0  0
    9.7701   -0.6679   -2.9972 O   0  0  0  0  0  0  0  0  0  0  0  0
    9.2623    0.2938   -4.9385 F   0  0  0  0  0  0  0  0  0  0  0  0
    9.3942   -1.9362   -4.8756 C   0  0  0  0  0  0  0  0  0  0  0  0
   10.4527   -2.5817   -4.5897 N   0  0  0  0  0  4  0  0  0  0  0  0
   11.9450   -3.1427   -4.5356 S   0  0  0  0  0  0  0  0  0  0  0  0
   13.2572   -2.0732   -4.2424 O   0  0  0  0  0  0  0  0  0  0  0  0
   13.1917   -0.9078   -4.9602 C   0  0  2  0  0  0  0  0  0  0  0  0
   13.1093   -1.2136   -6.3123 O   0  0  0  0  0  0  0  0  0  0  0  0
   14.2980    0.0607   -4.7440 C   0  0  2  0  0  0  0  0  0  0  0  0
   13.9019    1.4552   -3.6996 S   0  0  0  0  0  0  0  0  0  0  0  0
   15.2784    0.4495   -6.1866 S   0  0  0  0  0  0  0  0  0  0  0  0
   16.2555   -1.0231   -6.6501 C   0  0  2  0  0  0  0  0  0  0  0  0
   15.6882   -1.6264   -7.9419 C   0  0  0  0  0  0  0  0  0  0  0  0
   16.9367   -2.6471   -8.7318 S   0  0  0  0  0  0  0  0  0  0  0  0
   17.0932   -3.9598   -7.8572 N   0  0  0  0  0  3  0  0  0  0  0  0
   18.2262   -5.2207   -8.2998 S   0  0  0  0  0  0  0  0  0  0  0  0
   18.2457   -6.4287   -7.0739 O   0  0  0  0  0  0  0  0  0  0  0  0
   19.0378   -6.0512   -6.0877 O   0  0  0  0  0  0  0  0  0  0  0  0
   19.8387   -5.0772   -6.4355 O   0  0  0  0  0  0  0  0  0  0  0  0
   21.1295   -5.4131   -6.3844 N   0  0  0  0  0  2  0  0  0  0  0  0
   21.3553   -6.8298   -5.3261 S   0  0  0  0  0  0  0  0  0  0  0  0
   21.1415   -6.6904   -3.7208 N   0  0  0  0  0  3  0  0  0  0  0  0
   21.3344   -7.8299   -2.9661 O   0  0  0  0  0  0  0  0  0  0  0  0
   20.1997   -8.5994   -2.5932 C   0  0  0  0  0  3  0  0  0  0  0  0
   19.4382   -9.4164   -4.0220 S   0  0  0  0  0  0  0  0  0  0  0  0
   16.1529   -1.9896   -5.5454 C   0  0  0  0  0  0  0  0  0  0  0  0
   17.1740   -2.5852   -5.0801 N   0  0  0  0  0  4  0  0  0  0  0  0
   17.0793   -3.5037   -4.0311 N   0  0  0  0  0  1  0  0  0  0  0  0
   18.4057   -2.3278   -5.6096 O   0  0  0  0  0  0  0  0  0  0  0  0
   19.1601   -0.7779   -5.4709 S   0  0  0  0  0  0  0  0  0  0  0  0
   20.8467   -0.9935   -4.8938 C   0  0  0  0  0  3  0  0  0  0  0  0
   21.3317    0.0807   -3.9798 C   0  0  0  0  0  0  0  0  0  0  0  0
   20.7865   -0.0239   -2.7130 O   0  0  0  0  0  1  0  0  0  0  0  0
  1  2  1  0
  2  3  1  0
  3  4  1  0
  4  5  1  0
  5  6  1  6
  6  7  1  0
  5  8  1  0
  8  9  1  6
  8 10  1  0
 10 11  1  6
 10 12  1  0
 13 12  1  6
 13 14  1  0
 14 15  1  1
 14 16  1  0
 14 17  1  0
 17 18  2  0
 18 19  2  0
 19 20  1  0
 20 21  1  0
 21 22  1  6
 21 23  1  0
 23 24  1  6
 23 25  1  0
 25 26  1  0
 26 27  1  6
 27 28  1  0
 28 29  2  3
 29 30  1  0
 30 31  1  0
 31 32  1  0
 32 33  1  0
 33 34  1  0
 34 35  1  0
 35 36  2  3
 36 37  1  0
 37 38  1  0
 38 39  1  0
 26 40  1  0
 40 41  2  3
 41 42  1  0
 41 43  1  0
 43 44  1  0
 44 45  1  0
 45 46  1  0
 46 47  1  0
 13  1  1  0
M  CHG  8  14   1  18   1  29   1  34   1  36   1  41   1  42   1  47  -1
M  RAD  7   3   2  29   2  34   3  36   2  38   2  42   2  45   2
M  END
>  <docking_score>  (2) 
20.341000000000001

$$$$
