
     RDKit          3D

 60 59  0  0  0  0  0  0  0  0999 V2000
    5.3435    3.6646    4.1104 C   0  0  0  0  0  0  0  0  0  0  0  0
    4.8452    4.3178    5.2218 O   0  0  0  0  0  0  0  0  0  0  0  0
    5.0864    5.6961    5.1152 C   0  0  0  0  0  3  0  0  0  0  0  0
    4.1480    6.3551    5.9405 O   0  0  0  0  0  0  0  0  0  0  0  0
    3.3730    7.1385    5.1131 C   0  0  2  0  0  0  0  0  0  0  0  0
    4.2163    7.2325    3.7762 C   0  0  0  0  0  0  0  0  0  0  0  0
    3.1049    8.4038    5.5117 O   0  0  0  0  0  0  0  0  0  0  0  0
    3.8298    9.1054    6.2515 C   0  0  2  0  0  0  0  0  0  0  0  0
    3.4347    9.6943    7.5715 C   0  0  0  0  0  3  0  0  0  0  0  0
    3.7173   11.1485    7.4927 C   0  0  0  0  0  0  0  0  0  0  0  0
    4.4161   11.9253    8.4406 C   0  0  2  0  0  0  0  0  0  0  0  0
    4.4613   11.0870    9.8445 C   0  0  0  0  0  0  0  0  0  0  0  0
    5.4115   11.6849   10.6137 O   0  0  0  0  0  0  0  0  0  0  0  0
    5.4758   11.3690   11.9347 C   0  0  0  0  0  3  0  0  0  0  0  0
    5.0043   12.4307   12.8999 C   0  0  0  0  0  0  0  0  0  0  0  0
    3.7851   13.2393    9.0219 C   0  0  0  0  0  0  0  0  0  0  0  0
    4.9688   13.8505    9.5361 O   0  0  0  0  0  0  0  0  0  0  0  0
    4.9258   15.1250    9.5317 O   0  0  0  0  0  0  0  0  0  0  0  0
    4.6967   15.5594    8.1818 C   0  0  2  0  0  0  0  0  0  0  0  0
    3.3626   15.1395    7.7822 O   0  0  0  0  0  0  0  0  0  0  0  0
    5.4609   14.5413    7.4155 O   0  0  0  0  0  0  0  0  0  0  0  0
    6.1933   15.1643    6.5720 O   0  0  0  0  0  0  0  0  0  0  0  0
    6.8059   14.2467    5.7496 C   0  0  0  0  0  0  0  0  0  0  0  0
    6.7773   14.8000    4.4572 F   0  0  0  0  0  0  0  0  0  0  0  0
    5.4622    9.7490    5.7661 P   0  0  0  0  0  0  0  0  0  0  0  0
    5.4438   11.1454    4.7861 O   0  0  0  0  0  0  0  0  0  0  0  0
    6.5996    8.5586    5.3856 O   0  0  0  0  0  0  0  0  0  0  0  0
    7.8210    8.7526    5.7752 O   0  0  0  0  0  0  0  0  0  0  0  0
    8.6276    7.7152    5.2935 C   0  0  0  0  0  3  0  0  0  0  0  0
    9.7980    7.5151    5.9525 O   0  0  0  0  0  0  0  0  0  0  0  0
   10.8779    8.1902    5.4029 C   0  0  0  0  0  3  0  0  0  0  0  0
   11.5863    7.2884    4.5560 O   0  0  0  0  0  0  0  0  0  0  0  0
   11.7590    7.8391    3.3136 C   0  0  2  0  0  0  0  0  0  0  0  0
   10.9066    7.2266    2.4430 F   0  0  0  0  0  0  0  0  0  0  0  0
   13.0744    7.7218    2.9368 O   0  0  0  0  0  0  0  0  0  0  0  0
   13.2109    6.8007    1.8766 C   0  0  0  0  0  3  0  0  0  0  0  0
   13.6341    5.4177    2.3893 C   0  0  2  0  0  0  0  0  0  0  0  0
   15.2095    5.0078    1.5732 P   0  0  0  0  0  0  0  0  0  0  0  0
   16.1768    3.7470    2.5278 C   0  0  0  0  0  3  0  0  0  0  0  0
   16.1962    2.4357    1.6983 C   0  0  0  0  0  0  0  0  0  0  0  0
   15.3425    1.5087    2.2294 O   0  0  0  0  0  0  0  0  0  0  0  0
   14.3268    0.8158    0.9974 P   0  0  0  0  0  0  0  0  0  0  0  0
   15.1058   -1.1548    0.4092 P   0  0  0  0  0  0  0  0  0  0  0  0
   16.9293   -0.8881   -0.8029 P   0  0  0  0  0  0  0  0  0  0  0  0
   16.8501   -2.1013   -2.2309 C   0  0  2  0  0  0  0  0  0  0  0  0
   15.8185   -3.0104   -2.0082 F   0  0  0  0  0  0  0  0  0  0  0  0
   18.1444   -2.8596   -2.2372 C   0  0  0  0  0  3  0  0  0  0  0  0
   18.1201   -3.9733   -1.3990 O   0  0  0  0  0  0  0  0  0  0  0  0
   18.0774   -5.0489   -2.1762 O   0  0  0  0  0  0  0  0  0  0  0  0
   18.6701   -4.8424   -3.3960 C   0  0  0  0  0  3  0  0  0  0  0  0
   20.0442   -5.1770   -3.2985 O   0  0  0  0  0  0  0  0  0  0  0  0
   12.3290    4.2327    1.8204 P   0  0  0  0  0  0  0  0  0  0  0  0
   11.0211    5.1140    0.3165 P   0  0  0  0  0  0  0  0  0  0  0  0
    9.6133    3.6393   -0.4581 P   0  0  0  0  0  0  0  0  0  0  0  0
    8.1343    4.4818   -1.1586 C   0  0  2  0  0  0  0  0  0  0  0  0
    7.2871    4.8687   -0.1474 O   0  0  0  0  0  0  0  0  0  0  0  0
    7.2901    3.3535   -2.3451 P   0  0  0  0  0  0  0  0  0  0  0  0
    6.9121    4.2208   -3.8194 O   0  0  0  0  0  0  0  0  0  0  0  0
    5.6817    3.9124   -4.1843 O   0  0  0  0  0  0  0  0  0  0  0  0
    5.0844    3.1552   -3.3021 F   0  0  0  0  0  0  0  0  0  0  0  0
  1  2  1  0
  2  3  1  0
  3  4  1  0
  4  5  1  0
  5  6  1  6
  5  7  1  0
  7  8  1  0
  8  9  1  6
  9 10  1  0
 11 10  1  6
 11 12  1  0
 12 13  1  0
 13 14  1  0
 14 15  1  0
 11 16  1  0
 16 17  1  0
 17 18  1  0
 18 19  1  0
 19 20  1  6
 19 21  1  0
 21 22  1  0
 22 23  1  0
 23 24  1  0
  8 25  1  0
 25 26  1  0
 25 27  1  0
 27 28  1  0
 28 29  1  0
 29 30  1  0
 30 31  1  0
 31 32  1  0
 32 33  1  0
 33 34  1  6
 33 35  1  0
 35 36  1  0
 37 36  1  6
 37 38  1  0
 38 39  1  0
 39 40  1  0
 40 41  1  0
 41 42  1  0
 42 43  1  0
 43 44  1  0
 44 45  1  0
 45 46  1  1
 45 47  1  0
 47 48  1  0
 48 49  1  0
 49 50  1  0
 50 51  1  0
 37 52  1  0
 52 53  1  0
 53 54  1  0
 54 55  1  0
 55 56  1  1
 55 57  1  0
 57 58  1  0
 58 59  1  0
 59 60  1  0
M  RAD  8   3   2   9   2  14   2  29   2  31   2  36   2  39   2  47   2
M  RAD  1  50   2
M  END
>  <docking_score>  (1) 
44.494

$$$$
