
     RDKit          3D

 27 28  0  0  0  0  0  0  0  0999 V2000
   18.0951   -5.6834   -2.6661 C   0  0  0  0  0  0  0  0  0  0  0  0
   17.6108   -4.5575   -3.5711 C   0  0  0  0  0  0  0  0  0  0  0  0
   16.4248   -3.8827   -2.9213 C   0  0  0  0  0  0  0  0  0  0  0  0
   17.0883   -5.2116   -4.8537 C   0  0  0  0  0  0  0  0  0  0  0  0
   18.2246   -5.9332   -5.4607 C   0  0  0  0  0  0  0  0  0  0  0  0
   18.1550   -7.2252   -5.1550 C   0  0  0  0  0  0  0  0  0  0  0  0
   19.1653   -8.1733   -5.6346 C   0  0  0  0  0  0  0  0  0  0  0  0
   19.0024   -8.7742   -6.8270 C   0  0  0  0  0  0  0  0  0  0  0  0
   17.7997   -8.4185   -7.5560 C   0  0  0  0  0  0  0  0  0  0  0  0
   17.7001   -7.3080   -8.1810 C   0  0  0  0  0  0  0  0  0  0  0  0
   18.5018   -6.1943   -8.4014 C   0  0  0  0  0  0  0  0  0  0  0  0
   19.1797   -5.3597   -7.6964 C   0  0  0  0  0  0  0  0  0  0  0  0
   19.8851   -4.3226   -8.3562 O   0  0  0  0  0  0  0  0  0  0  0  0
   19.2880   -5.3870   -6.2634 C   0  0  1  0  0  0  0  0  0  0  0  0
   18.6746   -3.6477   -3.8750 N   0  0  0  0  0  0  0  0  0  0  0  0
   19.8912   -4.3485   -4.1476 C   0  0  0  0  0  0  0  0  0  0  0  0
   20.2110   -4.4195   -5.6280 C   0  0  2  0  0  0  0  0  0  0  0  0
   20.1048   -3.1535   -6.1695 O   0  0  0  0  0  0  0  0  0  0  0  0
   21.0668   -2.2762   -5.6699 C   0  0  0  0  0  0  0  0  0  0  0  0
   20.4448   -1.0102   -5.4592 O   0  0  0  0  0  0  0  0  0  0  0  0
   19.1207   -0.9185   -5.0458 C   0  0  0  0  0  0  0  0  0  0  0  0
   18.0903   -0.9497   -5.8650 C   0  0  0  0  0  0  0  0  0  0  0  0
   16.7607   -0.8437   -5.2936 C   0  0  0  0  0  0  0  0  0  0  0  0
   15.7723   -1.5118   -5.8440 C   0  0  0  0  0  0  0  0  0  0  0  0
   14.4008   -1.4200   -5.2775 C   0  0  0  0  0  0  0  0  0  0  0  0
   13.7753    0.2064   -5.5831 Cl  0  0  0  0  0  0  0  0  0  0  0  0
   15.9979   -2.3613   -7.0264 C   0  0  0  0  0  0  0  0  0  0  0  0
  1  2  1  0
  2  3  1  0
  2  4  1  0
  4  5  1  0
  5  6  2  3
  6  7  1  0
  7  8  2  3
  8  9  1  0
  9 10  2  3
 10 11  1  0
 11 12  2  3
 12 13  1  0
 14 12  1  6
  2 15  1  0
 15 16  1  0
 16 17  1  0
 17 18  1  6
 18 19  1  0
 19 20  1  0
 20 21  1  0
 21 22  2  3
 22 23  1  0
 23 24  2  3
 24 25  1  0
 25 26  1  0
 24 27  1  0
 14  5  1  0
 17 14  1  0
M  END
>  <docking_score>  (1) 
-3.9990000000000001

$$$$

     RDKit          3D

 27 28  0  0  0  0  0  0  0  0999 V2000
    2.8354   13.0404    6.1388 C   0  0  0  0  0  0  0  0  0  0  0  0
    3.4476   14.2789    5.4968 C   0  0  0  0  0  0  0  0  0  0  0  0
    2.3494   15.2787    5.2164 C   0  0  0  0  0  0  0  0  0  0  0  0
    3.9989   13.8472    4.1345 C   0  0  0  0  0  0  0  0  0  0  0  0
    5.0252   12.8177    4.3939 C   0  0  0  0  0  0  0  0  0  0  0  0
    4.5079   11.6071    4.2091 C   0  0  0  0  0  0  0  0  0  0  0  0
    5.3174   10.3996    4.4000 C   0  0  0  0  0  0  0  0  0  0  0  0
    6.0276    9.9038    3.3708 C   0  0  0  0  0  0  0  0  0  0  0  0
    5.9245   10.6331    2.1210 C   0  0  0  0  0  0  0  0  0  0  0  0
    6.5518   11.7309    1.9336 C   0  0  0  0  0  0  0  0  0  0  0  0
    7.4154   12.5411    2.6611 C   0  0  0  0  0  0  0  0  0  0  0  0
    7.4379   13.1068    3.8154 C   0  0  0  0  0  0  0  0  0  0  0  0
    8.5680   13.8830    4.1742 O   0  0  0  0  0  0  0  0  0  0  0  0
    6.3926   13.0186    4.7980 C   0  0  1  0  0  0  0  0  0  0  0  0
    4.4975   14.8150    6.3106 N   0  0  0  0  0  0  0  0  0  0  0  0
    5.3183   13.7734    6.8463 C   0  0  0  0  0  0  0  0  0  0  0  0
    6.6424   13.6349    6.1207 C   0  0  2  0  0  0  0  0  0  0  0  0
    7.2300   14.8808    6.0210 O   0  0  0  0  0  0  0  0  0  0  0  0
    7.2650   15.5543    7.2415 C   0  0  0  0  0  0  0  0  0  0  0  0
    8.5285   15.2989    7.8521 O   0  0  0  0  0  0  0  0  0  0  0  0
    8.6956   15.3966    9.2287 C   0  0  0  0  0  0  0  0  0  0  0  0
    9.6973   14.8537    9.8886 C   0  0  0  0  0  0  0  0  0  0  0  0
    9.7458   15.0366   11.3273 C   0  0  0  0  0  0  0  0  0  0  0  0
   10.4351   14.1893   12.0574 C   0  0  0  0  0  0  0  0  0  0  0  0
   10.5005   14.3548   13.5335 C   0  0  0  0  0  0  0  0  0  0  0  0
   11.8229   13.3556   14.1519 Cl  0  0  0  0  0  0  0  0  0  0  0  0
   11.1544   13.0638   11.4355 C   0  0  0  0  0  0  0  0  0  0  0  0
  1  2  1  0
  2  3  1  0
  2  4  1  0
  4  5  1  0
  5  6  2  3
  6  7  1  0
  7  8  2  3
  8  9  1  0
  9 10  2  3
 10 11  1  0
 11 12  2  3
 12 13  1  0
 14 12  1  6
  2 15  1  0
 15 16  1  0
 16 17  1  0
 17 18  1  6
 18 19  1  0
 19 20  1  0
 20 21  1  0
 21 22  2  3
 22 23  1  0
 23 24  2  3
 24 25  1  0
 25 26  1  0
 24 27  1  0
 14  5  1  0
 17 14  1  0
M  END
>  <docking_score>  (2) 
-3.726

$$$$

     RDKit          3D

 27 28  0  0  0  0  0  0  0  0999 V2000
    8.6858   13.8685   11.4661 C   0  0  0  0  0  0  0  0  0  0  0  0
    7.5949   14.9175   11.6405 C   0  0  0  0  0  0  0  0  0  0  0  0
    8.1514   16.0749   12.4372 C   0  0  0  0  0  0  0  0  0  0  0  0
    6.5013   14.2824   12.5047 C   0  0  0  0  0  0  0  0  0  0  0  0
    5.9987   13.1073   11.7652 C   0  0  0  0  0  0  0  0  0  0  0  0
    6.5657   12.0006   12.2355 C   0  0  0  0  0  0  0  0  0  0  0  0
    6.2404   10.6852   11.6756 C   0  0  0  0  0  0  0  0  0  0  0  0
    5.2061    9.9855   12.1757 C   0  0  0  0  0  0  0  0  0  0  0  0
    4.4811   10.6167   13.2622 C   0  0  0  0  0  0  0  0  0  0  0  0
    3.6477   11.5623   13.0497 C   0  0  0  0  0  0  0  0  0  0  0  0
    3.1638   12.2576   11.9479 C   0  0  0  0  0  0  0  0  0  0  0  0
    3.6478   12.9020   10.9463 C   0  0  0  0  0  0  0  0  0  0  0  0
    2.7550   13.4852   10.0128 O   0  0  0  0  0  0  0  0  0  0  0  0
    5.0487   13.0871   10.6832 C   0  0  1  0  0  0  0  0  0  0  0  0
    7.0579   15.3172   10.3741 N   0  0  0  0  0  0  0  0  0  0  0  0
    6.8739   14.1905    9.5126 C   0  0  0  0  0  0  0  0  0  0  0  0
    5.4253   13.7534    9.4160 C   0  0  2  0  0  0  0  0  0  0  0  0
    4.6420   14.8584    9.1465 O   0  0  0  0  0  0  0  0  0  0  0  0
    4.6575   15.2081    7.7967 C   0  0  0  0  0  0  0  0  0  0  0  0
    4.4229   14.0279    7.0308 O   0  0  0  0  0  0  0  0  0  0  0  0
    5.2101   13.7171    5.9280 C   0  0  0  0  0  0  0  0  0  0  0  0
    5.1398   14.3459    4.7733 C   0  0  0  0  0  0  0  0  0  0  0  0
    6.0239   13.9145    3.7064 C   0  0  0  0  0  0  0  0  0  0  0  0
    5.5233   13.2490    2.6901 C   0  0  0  0  0  0  0  0  0  0  0  0
    6.4079   12.7960    1.5844 C   0  0  0  0  0  0  0  0  0  0  0  0
    6.7742   11.0821    1.8255 Cl  0  0  0  0  0  0  0  0  0  0  0  0
    4.0846   12.9386    2.6225 C   0  0  0  0  0  0  0  0  0  0  0  0
  1  2  1  0
  2  3  1  0
  2  4  1  0
  4  5  1  0
  5  6  2  3
  6  7  1  0
  7  8  2  3
  8  9  1  0
  9 10  2  3
 10 11  1  0
 11 12  2  3
 12 13  1  0
 14 12  1  1
  2 15  1  0
 15 16  1  0
 16 17  1  0
 17 18  1  1
 18 19  1  0
 19 20  1  0
 20 21  1  0
 21 22  2  3
 22 23  1  0
 23 24  2  3
 24 25  1  0
 25 26  1  0
 24 27  1  0
 14  5  1  0
 17 14  1  0
M  END
>  <docking_score>  (3) 
-3.1139999999999999

$$$$
