
     RDKit          3D

 14 14  0  0  0  0  0  0  0  0999 V2000
    6.3618    2.1784   -5.9965 C   0  0  0  0  0  0  0  0  0  0  0  0
    7.0769    1.0287   -5.6529 O   0  0  0  0  0  0  0  0  0  0  0  0
    6.2867   -0.1057   -5.6259 C   0  0  0  0  0  3  0  0  0  0  0  0
    7.0324   -1.2837   -5.7630 O   0  0  0  0  0  0  0  0  0  0  0  0
    6.4163   -2.0299   -6.7513 C   0  0  2  0  0  0  0  0  0  0  0  0
    5.8241   -1.1658   -7.8296 C   0  0  0  0  0  0  0  0  0  0  0  0
    5.4535   -3.0582   -6.2173 C   0  0  0  0  0  3  0  0  0  0  0  0
    4.5716   -3.6506   -7.2857 C   0  0  0  0  0  0  0  0  0  0  0  0
    5.3880   -4.4123   -8.1261 O   0  0  0  0  0  0  0  0  0  0  0  0
    5.4707   -5.7136   -7.6424 C   0  0  0  0  0  3  0  0  0  0  0  0
    4.3830   -6.5221   -8.3329 C   0  0  0  0  0  3  0  0  0  0  0  0
    3.2714   -5.5655   -8.7385 C   0  0  0  0  0  3  0  0  0  0  0  0
    2.6840   -4.8967   -7.5099 C   0  0  0  0  0  3  0  0  0  0  0  0
    3.6955   -4.5300   -6.6333 O   0  0  0  0  0  0  0  0  0  0  0  0
  1  2  1  0
  2  3  1  0
  3  4  1  0
  4  5  1  0
  5  6  1  6
  5  7  1  0
  7  8  1  0
  8  9  1  0
  9 10  1  0
 10 11  1  0
 11 12  1  0
 12 13  1  0
  8 14  1  0
 14 13  1  0
M  RAD  6   3   2   7   2  10   2  11   2  12   2  13   2
M  END
>  <docking_score>  (1) 
-4.3410000000000002

$$$$

     RDKit          3D

 14 14  0  0  0  0  0  0  0  0999 V2000
   16.9813   -2.8549   -5.4179 C   0  0  0  0  0  0  0  0  0  0  0  0
   16.2379   -4.0341   -5.5084 O   0  0  0  0  0  0  0  0  0  0  0  0
   16.1556   -4.7094   -4.3046 C   0  0  0  0  0  3  0  0  0  0  0  0
   17.3079   -5.4562   -4.0272 O   0  0  0  0  0  0  0  0  0  0  0  0
   17.5727   -5.2903   -2.6797 C   0  0  2  0  0  0  0  0  0  0  0  0
   16.4876   -4.5220   -1.9780 C   0  0  0  0  0  0  0  0  0  0  0  0
   18.9543   -4.7597   -2.3986 C   0  0  0  0  0  3  0  0  0  0  0  0
   18.9493   -3.3385   -1.8984 C   0  0  0  0  0  0  0  0  0  0  0  0
   19.7992   -3.2828   -0.7904 O   0  0  0  0  0  0  0  0  0  0  0  0
   21.0953   -3.0031   -1.2100 C   0  0  0  0  0  3  0  0  0  0  0  0
   21.2751   -1.4941   -1.1456 C   0  0  0  0  0  3  0  0  0  0  0  0
   19.9048   -0.8501   -1.2959 C   0  0  0  0  0  3  0  0  0  0  0  0
   19.2993   -1.2178   -2.6375 C   0  0  0  0  0  3  0  0  0  0  0  0
   19.5231   -2.5593   -2.9134 O   0  0  0  0  0  0  0  0  0  0  0  0
  1  2  1  0
  2  3  1  0
  3  4  1  0
  4  5  1  0
  5  6  1  6
  5  7  1  0
  7  8  1  0
  8  9  1  0
  9 10  1  0
 10 11  1  0
 11 12  1  0
 12 13  1  0
  8 14  1  0
 14 13  1  0
M  RAD  6   3   2   7   2  10   2  11   2  12   2  13   2
M  END
>  <docking_score>  (2) 
-3.7269999999999999

$$$$

     RDKit          3D

 14 14  0  0  0  0  0  0  0  0999 V2000
   19.9710   -4.5645   -3.7882 C   0  0  0  0  0  0  0  0  0  0  0  0
   19.1306   -4.9747   -2.7506 O   0  0  0  0  0  0  0  0  0  0  0  0
   18.3786   -6.0879   -3.0784 C   0  0  0  0  0  3  0  0  0  0  0  0
   17.5995   -5.8914   -4.2258 O   0  0  0  0  0  0  0  0  0  0  0  0
   16.2991   -5.7016   -3.7941 C   0  0  2  0  0  0  0  0  0  0  0  0
   15.3140   -6.5200   -4.5815 C   0  0  0  0  0  0  0  0  0  0  0  0
   15.9091   -4.2512   -3.6779 C   0  0  0  0  0  3  0  0  0  0  0  0
   15.6306   -3.6072   -5.0114 C   0  0  0  0  0  0  0  0  0  0  0  0
   14.4462   -2.8766   -4.8830 O   0  0  0  0  0  0  0  0  0  0  0  0
   14.7382   -1.5855   -4.4563 C   0  0  0  0  0  3  0  0  0  0  0  0
   14.8773   -0.7198   -5.6992 C   0  0  0  0  0  3  0  0  0  0  0  0
   15.2911   -1.6187   -6.8549 C   0  0  0  0  0  3  0  0  0  0  0  0
   16.6278   -2.2711   -6.5562 C   0  0  0  0  0  3  0  0  0  0  0  0
   16.6710   -2.6939   -5.2351 O   0  0  0  0  0  0  0  0  0  0  0  0
  1  2  1  0
  2  3  1  0
  3  4  1  0
  4  5  1  0
  5  6  1  6
  5  7  1  0
  7  8  1  0
  8  9  1  0
  9 10  1  0
 10 11  1  0
 11 12  1  0
 12 13  1  0
  8 14  1  0
 14 13  1  0
M  RAD  6   3   2   7   2  10   2  11   2  12   2  13   2
M  END
>  <docking_score>  (3) 
-3.722

$$$$
