
     RDKit          3D

 35 34  0  0  0  0  0  0  0  0999 V2000
    6.9991   10.0350   12.3255 C   0  0  0  0  0  0  0  0  0  0  0  0
    6.5281   11.4581   12.3816 C   0  0  0  0  0  0  0  0  0  0  0  0
    7.4630   12.2521   11.4983 C   0  0  0  0  0  0  0  0  0  0  0  0
    6.6451   12.0473   13.7638 C   0  0  0  0  0  0  0  0  0  0  0  0
    5.1585   11.6105   11.8606 C   0  0  0  0  0  0  0  0  0  0  0  0
    4.0786   11.8798   12.8262 C   0  0  0  0  0  0  0  0  0  0  0  0
    2.8862   10.9729   12.8138 C   0  0  2  0  0  0  0  0  0  0  0  0
    2.4141   10.7867   14.1415 O   0  0  0  0  0  0  0  0  0  0  0  0
    3.2532   11.3215   15.1116 C   0  0  0  0  0  0  0  0  0  0  0  0
    2.5049   12.8196   15.6513 C   0  0  0  0  0  3  0  0  0  0  0  0
    3.9523   13.1726   15.9154 C   0  0  0  0  0  0  0  0  0  0  0  0
    4.2383   13.7222   17.4206 S   0  0  0  0  0  0  0  0  0  0  0  0
    2.9253   13.7880   18.5841 C   0  0  0  0  0  0  0  0  0  0  0  0
    4.6718   11.6385   17.7303 C   0  0  0  0  0  3  0  0  0  0  0  0
    4.7940   11.3182   19.1755 C   0  0  1  0  0  0  0  0  0  0  0  0
    5.4241   12.3756   19.9595 C   0  0  0  0  0  2  0  0  0  0  0  0
    3.6386   10.7778   19.6615 O   0  0  0  0  0  0  0  0  0  0  0  0
    3.3588   11.4599   20.8495 C   0  0  0  0  0  2  0  0  0  0  0  0
    3.0838    9.6598   12.2077 C   0  0  0  0  0  0  0  0  0  0  0  0
    3.8926    9.6721   10.9329 C   0  0  0  0  0  0  0  0  0  0  0  0
    2.9202    9.4865    9.7614 C   0  0  2  0  0  0  0  0  0  0  0  0
    3.2460    8.2478    8.9960 C   0  0  0  0  0  0  0  0  0  0  0  0
    2.7851   10.7489    8.9964 C   0  0  0  0  0  0  0  0  0  0  0  0
    4.1872   11.2697    8.6827 C   0  0  0  0  0  0  0  0  0  0  0  0
    4.2833   11.3541    7.1721 C   0  0  0  0  0  3  0  0  0  0  0  0
    4.2309    9.9394    6.5911 C   0  0  2  0  0  0  0  0  0  0  0  0
    5.5521    9.4644    6.1163 C   0  0  0  0  0  0  0  0  0  0  0  0
    3.2583   10.0129    5.4395 C   0  0  0  0  0  0  0  0  0  0  0  0
    3.9931   10.0171    4.1304 C   0  0  1  0  0  0  0  0  0  0  0  0
    3.3370    8.9937    3.2242 C   0  0  0  0  0  0  0  0  0  0  0  0
    3.8255   11.3560    3.5433 N   0  0  0  0  0  0  0  0  0  0  0  0
    3.0307   12.1353    4.5043 C   0  0  0  0  0  0  0  0  0  0  0  0
    5.0716   12.0614    3.3733 C   0  0  0  0  0  0  0  0  0  0  0  0
    6.1196   11.0299    3.1364 C   0  0  0  0  0  0  0  0  0  0  0  0
    6.3328   10.6271    2.0045 O   0  0  0  0  0  0  0  0  0  0  0  0
  1  2  1  0
  2  3  1  0
  2  4  1  0
  2  5  1  0
  5  6  1  0
  7  6  1  1
  7  8  1  0
  8  9  1  0
  9 10  1  0
 10 11  1  0
 11 12  2  3
 12 13  1  1
 12 14  1  0
 14 15  1  0
 15 16  1  1
 15 17  1  0
 17 18  1  0
  7 19  1  0
 19 20  1  0
 20 21  1  0
 21 22  1  6
 21 23  1  0
 23 24  1  0
 24 25  1  0
 25 26  1  0
 26 27  1  6
 26 28  1  0
 28 29  1  0
 29 30  1  6
 29 31  1  0
 31 32  1  0
 31 33  1  0
 33 34  1  0
 34 35  2  0
M  RAD  5  10   2  14   2  16   3  18   3  25   2
M  END
>  <docking_score>  (1) 
-1.7669999999999999

$$$$

     RDKit          3D

 35 34  0  0  0  0  0  0  0  0999 V2000
    8.8746   14.4425    8.0744 C   0  0  0  0  0  0  0  0  0  0  0  0
    9.7725   14.7141    9.2449 C   0  0  0  0  0  0  0  0  0  0  0  0
   10.3869   16.0741    9.0049 C   0  0  0  0  0  0  0  0  0  0  0  0
   10.9178   13.7381    9.3283 C   0  0  0  0  0  0  0  0  0  0  0  0
    9.0289   14.7602   10.5159 C   0  0  0  0  0  0  0  0  0  0  0  0
    8.0239   15.8237   10.6895 C   0  0  0  0  0  0  0  0  0  0  0  0
    6.7658   15.4841   11.4285 C   0  0  2  0  0  0  0  0  0  0  0  0
    7.0565   14.5561   12.4651 O   0  0  0  0  0  0  0  0  0  0  0  0
    7.2078   15.1454   13.7145 C   0  0  0  0  0  0  0  0  0  0  0  0
    8.7048   16.0679   13.6558 C   0  0  0  0  0  3  0  0  0  0  0  0
    9.0491   15.1356   14.7966 C   0  0  0  0  0  0  0  0  0  0  0  0
   10.2483   14.0878   14.4597 S   0  0  0  0  0  0  0  0  0  0  0  0
   11.0583   14.1674   12.9043 C   0  0  0  0  0  0  0  0  0  0  0  0
   11.4092   15.6546   15.3670 C   0  0  0  0  0  3  0  0  0  0  0  0
   12.7095   15.1441   15.8719 C   0  0  1  0  0  0  0  0  0  0  0  0
   13.5778   14.6140   14.8258 C   0  0  0  0  0  2  0  0  0  0  0  0
   13.2636   16.0077   16.7721 O   0  0  0  0  0  0  0  0  0  0  0  0
   12.4412   15.9735   17.9022 C   0  0  0  0  0  2  0  0  0  0  0  0
    5.6729   14.9469   10.6236 C   0  0  0  0  0  0  0  0  0  0  0  0
    5.7632   13.4646   10.3519 C   0  0  0  0  0  0  0  0  0  0  0  0
    4.6366   13.0992    9.3774 C   0  0  2  0  0  0  0  0  0  0  0  0
    3.3211   13.5883    9.8840 C   0  0  0  0  0  0  0  0  0  0  0  0
    4.7328   11.6725    8.9870 C   0  0  0  0  0  0  0  0  0  0  0  0
    3.9159   11.4702    7.7113 C   0  0  0  0  0  0  0  0  0  0  0  0
    4.2460   10.0784    7.2091 C   0  0  0  0  0  3  0  0  0  0  0  0
    4.7189   10.1734    5.7568 C   0  0  2  0  0  0  0  0  0  0  0  0
    5.6145    9.0575    5.3704 C   0  0  0  0  0  0  0  0  0  0  0  0
    5.4518   11.4889    5.6573 C   0  0  0  0  0  0  0  0  0  0  0  0
    5.1666   12.1512    4.3405 C   0  0  1  0  0  0  0  0  0  0  0  0
    4.9410   13.6278    4.6006 C   0  0  0  0  0  0  0  0  0  0  0  0
    6.3665   11.9886    3.5044 N   0  0  0  0  0  0  0  0  0  0  0  0
    7.4767   11.6939    4.4226 C   0  0  0  0  0  0  0  0  0  0  0  0
    6.2781   10.8728    2.5953 C   0  0  0  0  0  0  0  0  0  0  0  0
    7.1687   11.1865    1.4435 C   0  0  0  0  0  0  0  0  0  0  0  0
    6.9127   10.7410    0.3367 O   0  0  0  0  0  0  0  0  0  0  0  0
  1  2  1  0
  2  3  1  0
  2  4  1  0
  2  5  1  0
  5  6  1  0
  7  6  1  6
  7  8  1  0
  8  9  1  0
  9 10  1  0
 10 11  1  0
 11 12  2  3
 12 13  1  6
 12 14  1  0
 14 15  1  0
 15 16  1  6
 15 17  1  0
 17 18  1  0
  7 19  1  0
 19 20  1  0
 20 21  1  0
 21 22  1  1
 21 23  1  0
 23 24  1  0
 24 25  1  0
 25 26  1  0
 26 27  1  1
 26 28  1  0
 28 29  1  0
 29 30  1  1
 29 31  1  0
 31 32  1  0
 31 33  1  0
 33 34  1  0
 34 35  2  0
M  RAD  5  10   2  14   2  16   3  18   3  25   2
M  END
>  <docking_score>  (2) 
0.24299999999999999

$$$$
