
     RDKit          3D

 24 27  0  0  0  0  0  0  0  0999 V2000
   14.3542   -7.5181   -4.2138 O   0  0  0  0  0  0  0  0  0  0  0  0
   14.8538   -6.6970   -5.0640 C   0  0  0  0  0  0  0  0  0  0  0  0
   13.8631   -5.8883   -5.7145 N   0  0  0  0  0  0  0  0  0  0  0  0
   14.0357   -5.4150   -7.1001 C   0  0  0  0  0  0  0  0  0  0  0  0
   15.0734   -4.3672   -7.0236 C   0  0  0  0  0  0  0  0  0  0  0  0
   16.1549   -4.4345   -7.8515 C   0  0  0  0  0  0  0  0  0  0  0  0
   17.1611   -3.4590   -7.7686 C   0  0  0  0  0  0  0  0  0  0  0  0
   17.0289   -2.4501   -6.8448 C   0  0  0  0  0  0  0  0  0  0  0  0
   18.0429   -1.4911   -6.7713 O   0  0  0  0  0  0  0  0  0  0  0  0
   15.9255   -2.4011   -6.0191 C   0  0  0  0  0  0  0  0  0  0  0  0
   14.9403   -3.3630   -6.1058 C   0  0  0  0  0  0  0  0  0  0  0  0
   16.2232   -6.5447   -5.3838 C   0  0  0  0  0  0  0  0  0  0  0  0
   17.1813   -5.8241   -4.9454 C   0  0  0  0  0  0  0  0  0  0  0  0
   17.2480   -4.6231   -3.6738 S   0  0  0  0  0  0  0  0  0  0  0  0
   18.9398   -4.2416   -3.2549 C   0  0  2  0  0  0  0  0  0  0  0  0
   19.2110   -4.0636   -1.8215 C   0  0  0  0  0  0  0  0  0  0  0  0
   19.8647   -2.9322   -1.6431 C   0  0  0  0  0  0  0  0  0  0  0  0
   20.0532   -2.3107   -2.9465 C   0  0  0  0  0  0  0  0  0  0  0  0
   20.7596   -1.0131   -3.1881 C   0  0  0  0  0  0  0  0  0  0  0  0
   19.5143   -3.0663   -3.8854 C   0  0  0  0  0  0  0  0  0  0  0  0
   19.4500   -2.8295   -5.3570 C   0  0  0  0  0  0  0  0  0  0  0  0
   19.0328   -1.6173   -5.7929 C   0  0  0  0  0  0  0  0  0  0  0  0
   19.5865   -0.0034   -5.2755 S   0  0  0  0  0  0  0  0  0  0  0  0
   19.9363    0.0048   -3.5901 O   0  0  0  0  0  0  0  0  0  0  0  0
  1  2  2  0
  2  3  1  0
  3  4  1  0
  4  5  1  0
  5  6  2  0
  6  7  1  0
  7  8  2  0
  8  9  1  0
  8 10  1  0
 10 11  2  0
  2 12  1  0
 12 13  2  3
 13 14  1  0
 14 15  1  0
 15 16  1  1
 16 17  2  0
 17 18  1  0
 18 19  1  0
 18 20  2  0
 20 21  1  0
 21 22  2  0
 22 23  1  0
 23 24  1  0
 11  5  1  0
 22  9  1  0
 20 15  1  0
 24 19  1  0
M  END
>  <docking_score>  (1) 
-6.1219999999999999

$$$$

     RDKit          3D

 24 27  0  0  0  0  0  0  0  0999 V2000
   14.9564   -6.7866   -4.5402 O   0  0  0  0  0  0  0  0  0  0  0  0
   15.5595   -5.9104   -5.2580 C   0  0  0  0  0  0  0  0  0  0  0  0
   14.6593   -5.0269   -5.9419 N   0  0  0  0  0  0  0  0  0  0  0  0
   14.9916   -4.4450   -7.2552 C   0  0  0  0  0  0  0  0  0  0  0  0
   16.0300   -3.4327   -6.9772 C   0  0  0  0  0  0  0  0  0  0  0  0
   17.1956   -3.4576   -7.6847 C   0  0  0  0  0  0  0  0  0  0  0  0
   18.2009   -2.5171   -7.4100 C   0  0  0  0  0  0  0  0  0  0  0  0
   17.9823   -1.5850   -6.4239 C   0  0  0  0  0  0  0  0  0  0  0  0
   18.9962   -0.6603   -6.1590 O   0  0  0  0  0  0  0  0  0  0  0  0
   16.7950   -1.5777   -5.7225 C   0  0  0  0  0  0  0  0  0  0  0  0
   15.8112   -2.5049   -5.9976 C   0  0  0  0  0  0  0  0  0  0  0  0
   16.9580   -5.7656   -5.4123 C   0  0  0  0  0  0  0  0  0  0  0  0
   17.8724   -5.1072   -4.8124 C   0  0  0  0  0  0  0  0  0  0  0  0
   17.8158   -4.0174   -3.4438 S   0  0  0  0  0  0  0  0  0  0  0  0
   19.4562   -3.7130   -2.8118 C   0  0  2  0  0  0  0  0  0  0  0  0
   19.5695   -3.6608   -1.3475 C   0  0  0  0  0  0  0  0  0  0  0  0
   20.2163   -2.5642   -1.0034 C   0  0  0  0  0  0  0  0  0  0  0  0
   20.5576   -1.8419   -2.2210 C   0  0  0  0  0  0  0  0  0  0  0  0
   21.3058   -0.5463   -2.2730 C   0  0  0  0  0  0  0  0  0  0  0  0
   20.1148   -2.5040   -3.2738 C   0  0  0  0  0  0  0  0  0  0  0  0
   20.2175   -2.1448   -4.7182 C   0  0  0  0  0  0  0  0  0  0  0  0
   19.8696   -0.8910   -5.0927 C   0  0  0  0  0  0  0  0  0  0  0  0
   20.3867    0.6606   -4.3829 S   0  0  0  0  0  0  0  0  0  0  0  0
   20.5476    0.5210   -2.6748 O   0  0  0  0  0  0  0  0  0  0  0  0
  1  2  2  0
  2  3  1  0
  3  4  1  0
  4  5  1  0
  5  6  2  0
  6  7  1  0
  7  8  2  0
  8  9  1  0
  8 10  1  0
 10 11  2  0
  2 12  1  0
 12 13  2  3
 13 14  1  0
 14 15  1  0
 15 16  1  1
 16 17  2  0
 17 18  1  0
 18 19  1  0
 18 20  2  0
 20 21  1  0
 21 22  2  0
 22 23  1  0
 23 24  1  0
 11  5  1  0
 22  9  1  0
 20 15  1  0
 24 19  1  0
M  END
>  <docking_score>  (2) 
-5.4729999999999999

$$$$

     RDKit          3D

 24 27  0  0  0  0  0  0  0  0999 V2000
   21.3797   -7.6468   -3.6581 O   0  0  0  0  0  0  0  0  0  0  0  0
   20.6266   -6.6697   -3.3050 C   0  0  0  0  0  0  0  0  0  0  0  0
   21.3644   -5.4982   -2.9281 N   0  0  0  0  0  0  0  0  0  0  0  0
   20.8640   -4.5621   -1.9048 C   0  0  0  0  0  0  0  0  0  0  0  0
   19.7452   -3.8466   -2.5504 C   0  0  0  0  0  0  0  0  0  0  0  0
   18.5362   -3.7887   -1.9223 C   0  0  0  0  0  0  0  0  0  0  0  0
   17.4580   -3.1347   -2.5391 C   0  0  0  0  0  0  0  0  0  0  0  0
   17.6506   -2.5634   -3.7742 C   0  0  0  0  0  0  0  0  0  0  0  0
   16.5648   -1.9221   -4.3768 O   0  0  0  0  0  0  0  0  0  0  0  0
   18.8826   -2.6328   -4.3898 C   0  0  0  0  0  0  0  0  0  0  0  0
   19.9381   -3.2770   -3.7780 C   0  0  0  0  0  0  0  0  0  0  0  0
   19.2128   -6.6681   -3.2633 C   0  0  0  0  0  0  0  0  0  0  0  0
   18.2824   -6.3737   -4.0863 C   0  0  0  0  0  0  0  0  0  0  0  0
   18.3281   -5.8037   -5.7406 S   0  0  0  0  0  0  0  0  0  0  0  0
   16.7206   -5.9466   -6.5014 C   0  0  2  0  0  0  0  0  0  0  0  0
   16.7213   -6.3998   -7.8994 C   0  0  0  0  0  0  0  0  0  0  0  0
   15.9864   -5.5757   -8.6207 C   0  0  0  0  0  0  0  0  0  0  0  0
   15.4692   -4.5415   -7.7355 C   0  0  0  0  0  0  0  0  0  0  0  0
   14.5796   -3.4134   -8.1561 C   0  0  0  0  0  0  0  0  0  0  0  0
   15.8962   -4.7511   -6.5040 C   0  0  0  0  0  0  0  0  0  0  0  0
   15.6373   -3.9490   -5.2729 C   0  0  0  0  0  0  0  0  0  0  0  0
   15.8119   -2.6076   -5.3340 C   0  0  0  0  0  0  0  0  0  0  0  0
   15.1845   -1.4632   -6.5487 S   0  0  0  0  0  0  0  0  0  0  0  0
   15.1791   -2.1828   -8.1123 O   0  0  0  0  0  0  0  0  0  0  0  0
  1  2  2  0
  2  3  1  0
  3  4  1  0
  4  5  1  0
  5  6  2  0
  6  7  1  0
  7  8  2  0
  8  9  1  0
  8 10  1  0
 10 11  2  0
  2 12  1  0
 12 13  2  3
 13 14  1  0
 14 15  1  0
 15 16  1  6
 16 17  2  0
 17 18  1  0
 18 19  1  0
 18 20  2  0
 20 21  1  0
 21 22  2  0
 22 23  1  0
 23 24  1  0
 11  5  1  0
 22  9  1  0
 20 15  1  0
 24 19  1  0
M  END
>  <docking_score>  (3) 
-5.2300000000000004

$$$$
