
     RDKit          3D

 16 16  0  0  0  0  0  0  0  0999 V2000
   13.6299   -1.0775   -4.9712 O   0  0  0  0  0  0  0  0  0  0  0  0
   14.3684   -2.0901   -4.9799 C   0  0  0  0  0  0  0  0  0  0  0  0
   15.7035   -2.0007   -5.6129 C   0  0  0  0  0  0  0  0  0  0  0  0
   15.8269   -2.1373   -6.9800 C   0  0  0  0  0  0  0  0  0  0  0  0
   17.0841   -2.0487   -7.5344 C   0  0  0  0  0  0  0  0  0  0  0  0
   18.2311   -1.8307   -6.8006 C   0  0  0  0  0  0  0  0  0  0  0  0
   18.0610   -1.6988   -5.4255 C   0  0  0  0  0  0  0  0  0  0  0  0
   16.8196   -1.7813   -4.8328 C   0  0  0  0  0  0  0  0  0  0  0  0
   16.6681   -1.6471   -3.4564 O   0  0  0  0  0  0  0  0  0  0  0  0
   17.6091   -2.1397   -2.5704 C   0  0  0  0  0  0  0  0  0  0  0  0
   18.7780   -1.3113   -2.1114 C   0  0  0  0  0  0  0  0  0  0  0  0
   17.5066   -3.3638   -2.0979 C   0  0  0  0  0  0  0  0  0  0  0  0
   16.3896   -4.1908   -2.5207 C   0  0  0  0  0  0  0  0  0  0  0  0
   16.5550   -5.3847   -3.0721 C   0  0  0  0  0  0  0  0  0  0  0  0
   17.9000   -5.8523   -3.2455 C   0  0  0  0  0  0  0  0  0  0  0  0
   19.0011   -6.2341   -3.3815 N   0  0  0  0  0  0  0  0  0  0  0  0
  1  2  2  0
  2  3  1  0
  3  4  2  0
  4  5  1  0
  5  6  2  0
  6  7  1  0
  7  8  2  0
  8  9  1  0
  9 10  1  0
 10 11  1  0
 10 12  2  3
 12 13  1  0
 13 14  2  3
 14 15  1  0
 15 16  3  0
  8  3  1  0
M  END
>  <docking_score>  (1) 
-4.657

$$$$

     RDKit          3D

 16 16  0  0  0  0  0  0  0  0999 V2000
   17.3363   -4.8052   -2.4139 O   0  0  0  0  0  0  0  0  0  0  0  0
   17.3753   -4.7584   -3.6658 C   0  0  0  0  0  0  0  0  0  0  0  0
   16.1183   -4.9201   -4.4307 C   0  0  0  0  0  0  0  0  0  0  0  0
   15.7549   -6.1650   -4.9010 C   0  0  0  0  0  0  0  0  0  0  0  0
   14.5792   -6.2781   -5.6086 C   0  0  0  0  0  0  0  0  0  0  0  0
   13.7409   -5.2164   -5.8757 C   0  0  0  0  0  0  0  0  0  0  0  0
   14.1456   -3.9792   -5.3830 C   0  0  0  0  0  0  0  0  0  0  0  0
   15.3150   -3.8249   -4.6703 C   0  0  0  0  0  0  0  0  0  0  0  0
   15.7041   -2.5805   -4.1852 O   0  0  0  0  0  0  0  0  0  0  0  0
   15.2878   -1.4048   -4.7833 C   0  0  0  0  0  0  0  0  0  0  0  0
   14.0381   -0.6906   -4.3462 C   0  0  0  0  0  0  0  0  0  0  0  0
   15.9831   -0.8712   -5.7651 C   0  0  0  0  0  0  0  0  0  0  0  0
   17.1954   -1.5355   -6.2118 C   0  0  0  0  0  0  0  0  0  0  0  0
   17.2479   -2.2486   -7.3278 C   0  0  0  0  0  0  0  0  0  0  0  0
   16.0459   -2.3509   -8.1042 C   0  0  0  0  0  0  0  0  0  0  0  0
   15.0626   -2.4286   -8.7395 N   0  0  0  0  0  0  0  0  0  0  0  0
  1  2  2  0
  2  3  1  0
  3  4  2  0
  4  5  1  0
  5  6  2  0
  6  7  1  0
  7  8  2  0
  8  9  1  0
  9 10  1  0
 10 11  1  0
 10 12  2  3
 12 13  1  0
 13 14  2  3
 14 15  1  0
 15 16  3  0
  8  3  1  0
M  END
>  <docking_score>  (2) 
-4.6440000000000001

$$$$

     RDKit          3D

 16 16  0  0  0  0  0  0  0  0999 V2000
   13.7595   -3.5073   -5.3508 O   0  0  0  0  0  0  0  0  0  0  0  0
   14.6182   -2.6949   -4.9344 C   0  0  0  0  0  0  0  0  0  0  0  0
   15.9127   -2.5900   -5.6446 C   0  0  0  0  0  0  0  0  0  0  0  0
   15.9584   -2.0565   -6.9159 C   0  0  0  0  0  0  0  0  0  0  0  0
   17.1797   -1.9746   -7.5463 C   0  0  0  0  0  0  0  0  0  0  0  0
   18.3639   -2.3961   -6.9795 C   0  0  0  0  0  0  0  0  0  0  0  0
   18.2722   -2.9277   -5.6965 C   0  0  0  0  0  0  0  0  0  0  0  0
   17.0688   -3.0266   -5.0321 C   0  0  0  0  0  0  0  0  0  0  0  0
   16.9957   -3.5608   -3.7497 O   0  0  0  0  0  0  0  0  0  0  0  0
   17.7245   -4.6785   -3.3855 C   0  0  0  0  0  0  0  0  0  0  0  0
   19.0125   -4.5707   -2.6157 C   0  0  0  0  0  0  0  0  0  0  0  0
   17.3056   -5.8841   -3.7069 C   0  0  0  0  0  0  0  0  0  0  0  0
   16.0653   -6.0239   -4.4503 C   0  0  0  0  0  0  0  0  0  0  0  0
   15.8174   -7.0632   -5.2346 C   0  0  0  0  0  0  0  0  0  0  0  0
   16.8312   -8.0734   -5.3338 C   0  0  0  0  0  0  0  0  0  0  0  0
   17.6601   -8.9003   -5.4088 N   0  0  0  0  0  0  0  0  0  0  0  0
  1  2  2  0
  2  3  1  0
  3  4  2  0
  4  5  1  0
  5  6  2  0
  6  7  1  0
  7  8  2  0
  8  9  1  0
  9 10  1  0
 10 11  1  0
 10 12  2  3
 12 13  1  0
 13 14  2  3
 14 15  1  0
 15 16  3  0
  8  3  1  0
M  END
>  <docking_score>  (3) 
-3.831

$$$$
