
     RDKit          3D

 13 14  0  0  0  0  0  0  0  0999 V2000
   15.0602   -3.1630   -7.9733 O   0  0  0  0  0  0  0  0  0  0  0  0
   15.7568   -2.9662   -6.8677 O   0  0  0  0  0  0  0  0  0  0  0  0
   14.9961   -2.2657   -5.9428 C   0  0  1  0  0  0  0  0  0  0  0  0
   14.5588   -3.1318   -4.9555 O   0  0  0  0  0  0  0  0  0  0  0  0
   15.5602   -4.0536   -4.6520 C   0  0  0  0  0  0  0  0  0  0  0  0
   16.1172   -3.6368   -3.2992 C   0  0  2  0  0  0  0  0  0  0  0  0
   16.3015   -2.1224   -3.3117 C   0  0  1  0  0  0  0  0  0  0  0  0
   17.3747   -1.8795   -2.2742 C   0  0  0  0  0  3  0  0  0  0  0  0
   17.9741   -3.2248   -1.9420 C   0  0  0  0  0  0  0  0  0  0  0  0
   17.5545   -4.0841   -3.1278 C   0  0  1  0  0  0  0  0  0  0  0  0
   17.6631   -5.5270   -2.7302 C   0  0  0  0  0  0  0  0  0  0  0  0
   16.8396   -1.7560   -4.6769 C   0  0  0  0  0  0  0  0  0  0  0  0
   15.7935   -1.2346   -5.4540 O   0  0  0  0  0  0  0  0  0  0  0  0
  1  2  1  0
  3  2  1  6
  3  4  1  0
  4  5  1  0
  6  5  1  6
  6  7  1  0
  7  8  1  1
  8  9  1  0
  9 10  1  0
 10 11  1  1
  7 12  1  0
 12 13  1  0
 13  3  1  0
 10  6  1  0
M  RAD  1   8   2
M  END
>  <docking_score>  (1) 
-4.2220000000000004

$$$$

     RDKit          3D

 13 14  0  0  0  0  0  0  0  0999 V2000
   15.0192    0.0595   -5.7664 O   0  0  0  0  0  0  0  0  0  0  0  0
   15.3407   -1.2191   -5.6771 O   0  0  0  0  0  0  0  0  0  0  0  0
   14.5241   -1.8528   -4.7516 C   0  0  1  0  0  0  0  0  0  0  0  0
   14.5621   -3.2202   -4.9639 O   0  0  0  0  0  0  0  0  0  0  0  0
   15.8544   -3.6133   -5.3103 C   0  0  0  0  0  0  0  0  0  0  0  0
   16.4186   -4.3219   -4.0881 C   0  0  2  0  0  0  0  0  0  0  0  0
   16.0595   -3.4958   -2.8568 C   0  0  1  0  0  0  0  0  0  0  0  0
   17.1172   -3.8755   -1.8448 C   0  0  0  0  0  3  0  0  0  0  0  0
   18.1890   -4.6296   -2.5946 C   0  0  0  0  0  0  0  0  0  0  0  0
   17.9304   -4.2343   -4.0428 C   0  0  1  0  0  0  0  0  0  0  0  0
   18.5908   -5.2437   -4.9355 C   0  0  0  0  0  0  0  0  0  0  0  0
   16.2350   -2.0422   -3.2358 C   0  0  0  0  0  0  0  0  0  0  0  0
   14.9731   -1.4814   -3.4874 O   0  0  0  0  0  0  0  0  0  0  0  0
  1  2  1  0
  3  2  1  6
  3  4  1  0
  4  5  1  0
  6  5  1  6
  6  7  1  0
  7  8  1  1
  8  9  1  0
  9 10  1  0
 10 11  1  6
  7 12  1  0
 12 13  1  0
 13  3  1  0
 10  6  1  0
M  RAD  1   8   2
M  END
>  <docking_score>  (2) 
-4.2080000000000002

$$$$

     RDKit          3D

 13 14  0  0  0  0  0  0  0  0999 V2000
   13.6805    0.3230   -4.9987 O   0  0  0  0  0  0  0  0  0  0  0  0
   14.5955   -0.5187   -4.5509 O   0  0  0  0  0  0  0  0  0  0  0  0
   15.3166   -1.0481   -5.6114 C   0  0  1  0  0  0  0  0  0  0  0  0
   16.6078   -1.3263   -5.1974 O   0  0  0  0  0  0  0  0  0  0  0  0
   16.5940   -1.8253   -3.8952 C   0  0  0  0  0  0  0  0  0  0  0  0
   16.8772   -3.3152   -4.0145 C   0  0  2  0  0  0  0  0  0  0  0  0
   16.0409   -3.8631   -5.1667 C   0  0  1  0  0  0  0  0  0  0  0  0
   15.8854   -5.3306   -4.8354 C   0  0  0  0  0  3  0  0  0  0  0  0
   16.3427   -5.5072   -3.4074 C   0  0  0  0  0  0  0  0  0  0  0  0
   16.2831   -4.0888   -2.8553 C   0  0  1  0  0  0  0  0  0  0  0  0
   17.1373   -4.0228   -1.6232 C   0  0  0  0  0  0  0  0  0  0  0  0
   14.6884   -3.1908   -5.0873 C   0  0  0  0  0  0  0  0  0  0  0  0
   14.6276   -2.1742   -6.0531 O   0  0  0  0  0  0  0  0  0  0  0  0
  1  2  1  0
  3  2  1  1
  3  4  1  0
  4  5  1  0
  6  5  1  1
  6  7  1  0
  7  8  1  1
  8  9  1  0
  9 10  1  0
 10 11  1  1
  7 12  1  0
 12 13  1  0
 13  3  1  0
 10  6  1  0
M  RAD  1   8   2
M  END
>  <docking_score>  (3) 
-4.0970000000000004

$$$$
