
     RDKit          3D

 41 42  0  0  0  0  0  0  0  0999 V2000
   14.4225   -3.7352   -8.6061 C   0  0  0  0  0  0  0  0  0  0  0  0
   14.6885   -4.7723   -7.5315 C   0  0  0  0  0  0  0  0  0  0  0  0
   13.9492   -6.0309   -7.9579 C   0  0  0  0  0  0  0  0  0  0  0  0
   16.1590   -5.0652   -7.4372 C   0  0  0  0  0  0  0  0  0  0  0  0
   14.1476   -4.2410   -6.2325 C   0  0  0  0  0  0  0  0  0  0  0  0
   13.8573   -2.7737   -6.3416 C   0  0  0  0  0  0  0  0  0  0  0  0
   15.1139   -2.0068   -6.4214 C   0  0  0  0  0  0  0  0  0  0  0  0
   15.5027   -1.5968   -7.4888 O   0  0  0  0  0  0  0  0  0  0  0  0
   15.9011   -1.7360   -5.2048 C   0  0  2  0  0  0  0  0  0  0  0  0
   15.1160   -2.0200   -3.9423 C   0  0  0  0  0  0  0  0  0  0  0  0
   16.2783   -0.4181   -5.1847 O   0  0  0  0  0  0  0  0  0  0  0  0
   17.0955   -2.6810   -5.2100 C   0  0  2  0  0  0  0  0  0  0  0  0
   16.7492   -3.7492   -4.2597 N   0  0  0  0  0  0  0  0  0  0  0  0
   18.3150   -1.9586   -4.6805 C   0  0  0  0  0  0  0  0  0  0  0  0
   19.4321   -2.0249   -5.6949 C   0  0  1  0  0  0  0  0  0  0  0  0
   19.4812   -0.7154   -6.4517 C   0  0  0  0  0  0  0  0  0  0  0  0
   20.7992   -0.5257   -7.1468 C   0  0  0  0  0  0  0  0  0  0  0  0
   19.2867    0.4688   -5.5202 C   0  0  0  0  0  0  0  0  0  0  0  0
   18.3965   -0.7655   -7.5060 C   0  0  0  0  0  0  0  0  0  0  0  0
   18.7858   -1.8192   -8.5210 C   0  0  0  0  0  0  0  0  0  0  0  0
   20.0459   -2.5381   -8.1684 C   0  0  0  0  0  0  0  0  0  0  0  0
   19.8353   -3.9847   -7.7956 C   0  0  0  0  0  0  0  0  0  0  0  0
   20.2382   -4.3085   -6.3938 C   0  0  0  0  0  3  0  0  0  0  0  0
   21.3782   -3.4547   -5.8837 C   0  0  0  0  0  0  0  0  0  0  0  0
   20.7518   -2.3415   -5.0178 C   0  0  2  0  0  0  0  0  0  0  0  0
   20.4095   -3.0160   -3.7115 C   0  0  0  0  0  0  0  0  0  0  0  0
   19.5678   -4.2029   -3.9219 C   0  0  0  0  0  0  0  0  0  0  0  0
   19.2395   -4.9868   -2.9109 C   0  0  0  0  0  0  0  0  0  0  0  0
   18.3741   -6.1624   -3.2707 C   0  0  0  0  0  0  0  0  0  0  0  0
   18.4559   -6.4060   -4.7380 C   0  0  0  0  0  0  0  0  0  0  0  0
   18.2255   -7.8466   -5.0465 C   0  0  2  0  0  0  0  0  0  0  0  0
   17.5003   -8.5069   -4.0835 O   0  0  0  0  0  0  0  0  0  0  0  0
   17.3510   -9.8472   -4.3538 C   0  0  0  0  0  0  0  0  0  0  0  0
   16.5255  -10.1369   -5.5721 C   0  0  1  0  0  0  0  0  0  0  0  0
   16.0841   -8.9162   -6.3167 C   0  0  0  0  0  0  0  0  0  0  0  0
   17.1520  -11.1909   -6.4366 C   0  0  0  0  0  0  0  0  0  0  0  0
   17.9980  -10.6059   -7.5269 C   0  0  0  0  0  3  0  0  0  0  0  0
   18.1817   -9.1199   -7.4218 C   0  0  0  0  0  0  0  0  0  0  0  0
   19.4857   -8.7299   -6.7588 C   0  0  1  0  0  0  0  0  0  0  0  0
   19.9170   -7.4178   -7.3832 C   0  0  0  0  0  0  0  0  0  0  0  0
   19.3354   -8.5693   -5.3815 O   0  0  0  0  0  0  0  0  0  0  0  0
  1  2  1  0
  2  3  1  0
  2  4  1  0
  2  5  1  0
  5  6  1  0
  6  7  1  0
  7  8  2  0
  7  9  1  0
  9 10  1  1
  9 11  1  0
  9 12  1  0
 12 13  1  1
 12 14  1  0
 15 14  1  1
 15 16  1  0
 16 17  1  0
 16 18  1  0
 16 19  1  0
 19 20  1  0
 20 21  1  0
 21 22  1  0
 22 23  1  0
 23 24  1  0
 24 25  1  0
 25 26  1  1
 26 27  1  0
 27 28  2  3
 28 29  1  0
 29 30  1  0
 31 30  1  1
 31 32  1  0
 32 33  1  0
 33 34  1  0
 34 35  1  6
 34 36  1  0
 36 37  1  0
 37 38  1  0
 38 39  1  0
 39 40  1  6
 39 41  1  0
 25 15  1  0
 41 31  1  0
M  RAD  2  23   2  37   2
M  END
>  <docking_score>  (1) 
1.0580000000000001

$$$$
