
     RDKit          3D

 26 26  0  0  0  0  0  0  0  0999 V2000
   15.3652   -2.4857   -8.7385 C   0  0  0  0  0  0  0  0  0  0  0  0
   15.7893   -2.6551   -7.2988 C   0  0  0  0  0  0  0  0  0  0  0  0
   14.5395   -2.7924   -6.4618 C   0  0  0  0  0  0  0  0  0  0  0  0
   16.5161   -1.4124   -6.8367 C   0  0  0  0  0  0  0  0  0  0  0  0
   17.9312   -1.7855   -6.4928 C   0  0  0  0  0  0  0  0  0  0  0  0
   18.7135   -2.0637   -7.7525 C   0  0  0  0  0  0  0  0  0  0  0  0
   19.8016   -3.0633   -7.4197 C   0  0  1  0  0  0  0  0  0  0  0  0
   21.0391   -2.3288   -6.9027 C   0  0  0  0  0  0  0  0  0  0  0  0
   19.2783   -3.9611   -6.3183 C   0  0  0  0  0  3  0  0  0  0  0  0
   20.4584   -4.3712   -5.4624 C   0  0  0  0  0  0  0  0  0  0  0  0
   20.8284   -5.8108   -5.7417 C   0  0  0  0  0  0  0  0  0  0  0  0
   19.5559   -6.5930   -5.9176 C   0  0  1  0  0  0  0  0  0  0  0  0
   19.7894   -7.9277   -6.6073 C   0  0  0  0  0  0  0  0  0  0  0  0
   18.8278   -6.7963   -4.6217 C   0  0  0  0  0  0  0  0  0  0  0  0
   17.3534   -6.8587   -4.8513 C   0  0  0  0  0  0  0  0  0  0  0  0
   16.5980   -6.0263   -3.8429 C   0  0  2  0  0  0  0  0  0  0  0  0
   15.9537   -4.8226   -4.4434 C   0  0  0  0  0  2  0  0  0  0  0  0
   17.4590   -5.6571   -2.6572 C   0  0  0  0  0  0  0  0  0  0  0  0
   17.2362   -4.2617   -2.1875 C   0  0  0  0  0  0  0  0  0  0  0  0
   18.3257   -3.3044   -2.5033 C   0  0  1  0  0  0  0  0  0  0  0  0
   17.8944   -1.8529   -2.4391 C   0  0  0  0  0  0  0  0  0  0  0  0
   19.4572   -3.3161   -1.4908 C   0  0  0  0  0  3  0  0  0  0  0  0
   20.2576   -2.0996   -1.9656 C   0  0  2  0  0  0  0  0  0  0  0  0
   21.0977   -1.5315   -0.8443 C   0  0  0  0  0  0  0  0  0  0  0  0
   19.2304   -1.1384   -2.4659 C   0  0  1  0  0  0  0  0  0  0  0  0
   19.5351   -0.8081   -3.9106 C   0  0  0  0  0  0  0  0  0  0  0  0
  1  2  1  0
  2  3  1  0
  2  4  1  0
  4  5  1  0
  5  6  1  0
  6  7  1  0
  7  8  1  1
  7  9  1  0
  9 10  1  0
 10 11  1  0
 11 12  1  0
 12 13  1  1
 12 14  1  0
 14 15  1  0
 15 16  1  0
 16 17  1  6
 16 18  1  0
 18 19  1  0
 20 19  1  1
 20 21  1  0
 20 22  1  0
 22 23  1  0
 23 24  1  1
 23 25  1  0
 25 26  1  6
 25 21  1  0
M  RAD  3   9   2  17   3  22   2
M  END
>  <docking_score>  (1) 
-3.6019999999999999

$$$$

     RDKit          3D

 26 26  0  0  0  0  0  0  0  0999 V2000
    5.2566   11.7579   10.9248 C   0  0  0  0  0  0  0  0  0  0  0  0
    4.6416   10.3879   11.0867 C   0  0  0  0  0  0  0  0  0  0  0  0
    5.5956    9.5464   11.9012 C   0  0  0  0  0  0  0  0  0  0  0  0
    4.4981    9.7350    9.7306 C   0  0  0  0  0  0  0  0  0  0  0  0
    3.9325   10.7444    8.7708 C   0  0  0  0  0  0  0  0  0  0  0  0
    4.4395   10.4726    7.3760 C   0  0  0  0  0  0  0  0  0  0  0  0
    4.2383   11.7258    6.5496 C   0  0  1  0  0  0  0  0  0  0  0  0
    2.8526   11.7033    5.9036 C   0  0  0  0  0  0  0  0  0  0  0  0
    4.3136   12.9114    7.4886 C   0  0  0  0  0  3  0  0  0  0  0  0
    5.2444   13.9306    6.8655 C   0  0  0  0  0  0  0  0  0  0  0  0
    6.0886   13.2776    5.7938 C   0  0  0  0  0  0  0  0  0  0  0  0
    6.2374   14.2534    4.6591 C   0  0  1  0  0  0  0  0  0  0  0  0
    7.2776   15.3232    4.9505 C   0  0  0  0  0  0  0  0  0  0  0  0
    6.5407   13.5722    3.3572 C   0  0  0  0  0  0  0  0  0  0  0  0
    7.5913   12.5273    3.5430 C   0  0  0  0  0  0  0  0  0  0  0  0
    7.1720   11.2050    2.9462 C   0  0  2  0  0  0  0  0  0  0  0  0
    6.3558   11.3553    1.7069 C   0  0  0  0  0  2  0  0  0  0  0  0
    6.4796   10.3227    3.9589 C   0  0  0  0  0  0  0  0  0  0  0  0
    5.1400    9.8563    3.5058 C   0  0  0  0  0  0  0  0  0  0  0  0
    4.9291    8.3879    3.5558 C   0  0  1  0  0  0  0  0  0  0  0  0
    4.5975    7.8704    4.9412 C   0  0  0  0  0  0  0  0  0  0  0  0
    3.7143    7.9216    2.7733 C   0  0  0  0  0  3  0  0  0  0  0  0
    3.6543    6.4561    3.2149 C   0  0  2  0  0  0  0  0  0  0  0  0
    2.2577    5.8989    3.0581 C   0  0  0  0  0  0  0  0  0  0  0  0
    4.1199    6.4656    4.6336 C   0  0  1  0  0  0  0  0  0  0  0  0
    5.3147    5.5462    4.7602 C   0  0  0  0  0  0  0  0  0  0  0  0
  1  2  1  0
  2  3  1  0
  2  4  1  0
  4  5  1  0
  5  6  1  0
  6  7  1  0
  7  8  1  1
  7  9  1  0
  9 10  1  0
 10 11  1  0
 11 12  1  0
 12 13  1  1
 12 14  1  0
 14 15  1  0
 15 16  1  0
 16 17  1  6
 16 18  1  0
 18 19  1  0
 20 19  1  1
 20 21  1  0
 20 22  1  0
 22 23  1  0
 23 24  1  1
 23 25  1  0
 25 26  1  6
 25 21  1  0
M  RAD  3   9   2  17   3  22   2
M  END
>  <docking_score>  (2) 
-3.3650000000000002

$$$$
