
     RDKit          3D

 21 20  0  0  0  0  0  0  0  0999 V2000
   16.9522   -2.4919   -7.6774 O   0  0  0  0  0  0  0  0  0  0  0  0
   15.8280   -3.2854   -7.4579 C   0  0  0  0  0  0  0  0  0  0  0  0
   15.0421   -2.6937   -6.3036 C   0  0  0  0  0  3  0  0  0  0  0  0
   15.4159   -3.3239   -5.0609 N   0  0  0  0  0  0  0  0  0  0  0  0
   15.3231   -2.4417   -3.9174 C   0  0  2  0  0  0  0  0  0  0  0  0
   15.0184   -1.0502   -4.4011 C   0  0  0  0  0  0  0  0  0  0  0  0
   13.8433   -0.5166   -3.9319 O   0  0  0  0  0  0  0  0  0  0  0  0
   16.5830   -2.4242   -3.1200 C   0  0  1  0  0  0  0  0  0  0  0  0
   16.3410   -1.6165   -1.9819 O   0  0  0  0  0  0  0  0  0  0  0  0
   16.9886   -3.7528   -2.5913 C   0  0  2  0  0  0  0  0  0  0  0  0
   16.4265   -3.9492   -1.3426 O   0  0  0  0  0  0  0  0  0  0  0  0
   18.4429   -4.0426   -2.5433 C   0  0  0  0  0  3  0  0  0  0  0  0
   18.9409   -3.9445   -3.9894 C   0  0  1  0  0  0  0  0  0  0  0  0
   20.3357   -4.0640   -3.9995 O   0  0  0  0  0  0  0  0  0  0  0  0
   18.3521   -4.9220   -4.7983 O   0  0  0  0  0  0  0  0  0  0  0  0
   19.0238   -6.0424   -4.7153 O   0  0  0  0  0  0  0  0  0  0  0  0
   18.2234   -7.0108   -4.3969 O   0  0  0  0  0  0  0  0  0  0  0  0
   18.7818   -8.2435   -4.7210 C   0  0  0  0  0  0  0  0  0  0  0  0
   17.7402   -9.0390   -5.2505 O   0  0  0  0  0  0  0  0  0  0  0  0
   17.6477   -9.1492   -6.6286 C   0  0  0  0  0  0  0  0  0  0  0  0
   17.7573   -8.1074   -7.3238 O   0  0  0  0  0  0  0  0  0  0  0  0
  1  2  1  0
  2  3  1  0
  3  4  1  0
  4  5  1  0
  5  6  1  6
  6  7  1  0
  5  8  1  0
  8  9  1  1
  8 10  1  0
 10 11  1  1
 10 12  1  0
 12 13  1  0
 13 14  1  1
 13 15  1  0
 15 16  1  0
 16 17  1  0
 17 18  1  0
 18 19  1  0
 19 20  1  0
 20 21  2  0
M  RAD  2   3   2  12   2
M  END
>  <docking_score>  (1) 
-3.125

$$$$

     RDKit          3D

 21 20  0  0  0  0  0  0  0  0999 V2000
   13.9019   -0.2458   -3.8610 O   0  0  0  0  0  0  0  0  0  0  0  0
   13.8933   -1.1096   -4.9544 C   0  0  0  0  0  0  0  0  0  0  0  0
   15.0684   -0.7626   -5.8481 C   0  0  0  0  0  3  0  0  0  0  0  0
   16.0176   -1.8484   -5.8807 N   0  0  0  0  0  0  0  0  0  0  0  0
   17.0250   -1.7636   -4.8450 C   0  0  2  0  0  0  0  0  0  0  0  0
   18.3639   -1.5258   -5.4884 C   0  0  0  0  0  0  0  0  0  0  0  0
   18.7407   -0.2082   -5.5749 O   0  0  0  0  0  0  0  0  0  0  0  0
   17.0853   -3.0040   -4.0196 C   0  0  1  0  0  0  0  0  0  0  0  0
   16.1690   -2.8359   -2.9527 O   0  0  0  0  0  0  0  0  0  0  0  0
   16.6505   -4.2332   -4.7333 C   0  0  2  0  0  0  0  0  0  0  0  0
   15.6294   -4.8450   -4.0284 O   0  0  0  0  0  0  0  0  0  0  0  0
   17.7018   -5.2258   -5.0659 C   0  0  0  0  0  3  0  0  0  0  0  0
   18.6637   -5.2378   -3.8728 C   0  0  1  0  0  0  0  0  0  0  0  0
   18.4416   -6.3976   -3.1210 O   0  0  0  0  0  0  0  0  0  0  0  0
   19.9962   -5.1643   -4.2920 O   0  0  0  0  0  0  0  0  0  0  0  0
   20.5060   -4.0008   -3.9761 O   0  0  0  0  0  0  0  0  0  0  0  0
   20.2265   -3.7203   -2.7420 O   0  0  0  0  0  0  0  0  0  0  0  0
   21.1751   -2.8570   -2.2019 C   0  0  0  0  0  0  0  0  0  0  0  0
   21.0268   -1.6179   -2.8656 O   0  0  0  0  0  0  0  0  0  0  0  0
   20.0881   -0.7273   -2.3700 C   0  0  0  0  0  0  0  0  0  0  0  0
   19.8581   -0.7222   -1.1340 O   0  0  0  0  0  0  0  0  0  0  0  0
  1  2  1  0
  2  3  1  0
  3  4  1  0
  4  5  1  0
  5  6  1  6
  6  7  1  0
  5  8  1  0
  8  9  1  1
  8 10  1  0
 10 11  1  1
 10 12  1  0
 12 13  1  0
 13 14  1  6
 13 15  1  0
 15 16  1  0
 16 17  1  0
 17 18  1  0
 18 19  1  0
 19 20  1  0
 20 21  2  0
M  RAD  2   3   2  12   2
M  END
>  <docking_score>  (2) 
-3.0870000000000002

$$$$

     RDKit          3D

 21 20  0  0  0  0  0  0  0  0999 V2000
   19.0920   -2.2259   -6.7204 O   0  0  0  0  0  0  0  0  0  0  0  0
   18.0096   -2.9632   -7.1964 C   0  0  0  0  0  0  0  0  0  0  0  0
   17.1152   -2.0375   -7.9983 C   0  0  0  0  0  3  0  0  0  0  0  0
   15.7668   -2.5485   -8.0415 N   0  0  0  0  0  0  0  0  0  0  0  0
   15.0256   -2.3208   -6.8194 C   0  0  2  0  0  0  0  0  0  0  0  0
   15.5268   -1.0568   -6.1759 C   0  0  0  0  0  0  0  0  0  0  0  0
   14.5610   -0.1167   -5.9129 O   0  0  0  0  0  0  0  0  0  0  0  0
   15.1653   -3.4540   -5.8604 C   0  0  1  0  0  0  0  0  0  0  0  0
   14.4983   -3.0733   -4.6703 O   0  0  0  0  0  0  0  0  0  0  0  0
   14.5101   -4.7124   -6.3036 C   0  0  2  0  0  0  0  0  0  0  0  0
   13.2669   -4.8258   -5.7074 O   0  0  0  0  0  0  0  0  0  0  0  0
   15.2758   -5.9701   -6.1216 C   0  0  0  0  0  3  0  0  0  0  0  0
   15.1995   -6.2981   -4.6265 C   0  0  1  0  0  0  0  0  0  0  0  0
   14.5519   -7.5284   -4.4630 O   0  0  0  0  0  0  0  0  0  0  0  0
   16.4715   -6.3245   -4.0452 O   0  0  0  0  0  0  0  0  0  0  0  0
   16.6820   -5.2243   -3.3679 O   0  0  0  0  0  0  0  0  0  0  0  0
   17.8580   -4.7563   -3.6466 O   0  0  0  0  0  0  0  0  0  0  0  0
   18.7015   -4.8434   -2.5432 C   0  0  0  0  0  0  0  0  0  0  0  0
   19.8152   -4.0155   -2.8121 O   0  0  0  0  0  0  0  0  0  0  0  0
   19.9550   -2.8571   -2.0647 C   0  0  0  0  0  0  0  0  0  0  0  0
   18.9363   -2.1512   -1.8538 O   0  0  0  0  0  0  0  0  0  0  0  0
  1  2  1  0
  2  3  1  0
  3  4  1  0
  4  5  1  0
  5  6  1  1
  6  7  1  0
  5  8  1  0
  8  9  1  1
  8 10  1  0
 10 11  1  1
 10 12  1  0
 12 13  1  0
 13 14  1  6
 13 15  1  0
 15 16  1  0
 16 17  1  0
 17 18  1  0
 18 19  1  0
 19 20  1  0
 20 21  2  0
M  RAD  2   3   2  12   2
M  END
>  <docking_score>  (3) 
-2.778

$$$$
