
     RDKit          3D

 25 27  0  0  0  0  0  0  0  0999 V2000
    3.0023   10.1958    4.6721 O   0  0  0  0  0  0  0  0  0  0  0  0
    3.9631    9.8377    5.7670 C   0  0  0  0  0  0  0  0  0  0  0  0
    5.4108    9.6076    5.4488 N   0  0  0  0  0  0  0  0  0  0  0  0
    5.8976    9.7354    4.0358 C   0  0  0  0  0  0  0  0  0  0  0  0
    6.3307   11.0718    3.5097 C   0  0  0  0  0  0  0  0  0  0  0  0
    6.4206   11.3020    2.0303 C   0  0  0  0  0  0  0  0  0  0  0  0
    6.8536   12.6383    1.5041 C   0  0  0  0  0  0  0  0  0  0  0  0
    7.1966   13.7443    2.4575 C   0  0  0  0  0  0  0  0  0  0  0  0
    7.6296   15.0807    1.9314 O   0  0  0  0  0  0  0  0  0  0  0  0
    7.1067   13.5141    3.9370 C   0  0  0  0  0  0  0  0  0  0  0  0
    6.6737   12.1778    4.4631 C   0  0  0  0  0  0  0  0  0  0  0  0
    3.4762    9.7099    7.1800 C   0  0  0  0  0  0  0  0  0  0  0  0
    4.3430    9.0575    8.2158 C   0  0  0  0  0  0  0  0  0  0  0  0
    3.8560    8.9296    9.6289 C   0  0  0  0  0  0  0  0  0  0  0  0
    2.7450    7.9765    9.9560 C   0  0  0  0  0  0  0  0  0  0  0  0
    2.2581    7.8487   11.3690 C   0  0  0  0  0  0  0  0  0  0  0  0
    2.8823    8.6740   12.4549 C   0  0  0  0  0  0  0  0  0  0  0  0
    3.9933    9.6272   12.1278 C   0  0  0  0  0  0  0  0  0  0  0  0
    4.1966    9.9725   12.8170 Cl  0  0  0  0  0  0  0  0  0  0  0  0
    4.4802    9.7550   10.7148 C   0  0  0  0  0  0  0  0  0  0  0  0
    5.1044   10.5803   11.8007 C   0  0  0  0  0  0  0  0  0  0  0  0
    4.6175   10.4525   13.2137 N   0  0  0  0  0  3  0  0  0  0  0  0
    3.5065    9.4994   13.5408 C   0  0  0  0  0  0  0  0  0  0  0  0
    3.0195    9.3716   14.9538 C   0  0  0  0  0  0  0  0  0  0  0  0
    3.5849    8.3088   15.8487 Cl  0  0  0  0  0  0  0  0  0  0  0  0
  1  2  2  0
  2  3  1  0
  3  4  1  0
  4  5  1  0
  5  6  2  0
  6  7  1  0
  7  8  2  0
  8  9  1  0
  8 10  1  0
 10 11  2  0
  2 12  1  0
 12 13  2  3
 13 14  1  0
 14 15  2  0
 15 16  1  0
 16 17  2  0
 17 18  1  0
 18 19  1  0
 18 20  2  0
 20 21  1  0
 21 22  1  0
 22 23  2  0
 23 24  1  0
 24 25  1  0
 11  5  1  0
 20 14  1  0
 23 17  1  0
M  CHG  1  22   1
M  RAD  1  22   2
M  END
>  <docking_score>  (1) 
-4.1669999999999998

$$$$

     RDKit          3D

 25 27  0  0  0  0  0  0  0  0999 V2000
   21.3816    3.3008   -5.8465 O   0  0  0  0  0  0  0  0  0  0  0  0
   20.0641    2.6028   -5.6819 C   0  0  0  0  0  0  0  0  0  0  0  0
   18.7844    3.3681   -5.8448 N   0  0  0  0  0  0  0  0  0  0  0  0
   18.8221    4.8314   -6.1724 C   0  0  0  0  0  0  0  0  0  0  0  0
   18.9398    5.8436   -5.0716 C   0  0  0  0  0  0  0  0  0  0  0  0
   17.7038    6.4028   -4.4317 C   0  0  0  0  0  0  0  0  0  0  0  0
   17.8214    7.4150   -3.3310 C   0  0  0  0  0  0  0  0  0  0  0  0
   19.1750    7.8679   -2.8701 C   0  0  0  0  0  0  0  0  0  0  0  0
   19.2927    8.8801   -1.7693 O   0  0  0  0  0  0  0  0  0  0  0  0
   20.4111    7.3086   -3.5099 C   0  0  0  0  0  0  0  0  0  0  0  0
   20.2935    6.2964   -4.6107 C   0  0  0  0  0  0  0  0  0  0  0  0
   20.0264    1.1394   -5.3543 C   0  0  0  0  0  0  0  0  0  0  0  0
   18.7118    0.4583   -5.1137 C   0  0  0  0  0  0  0  0  0  0  0  0
   18.6742   -1.0050   -4.7862 C   0  0  0  0  0  0  0  0  0  0  0  0
   19.9365   -1.7218   -4.4083 C   0  0  0  0  0  0  0  0  0  0  0  0
   19.8987   -3.1850   -4.0808 C   0  0  0  0  0  0  0  0  0  0  0  0
   18.5987   -3.9316   -4.1311 C   0  0  0  0  0  0  0  0  0  0  0  0
   17.3364   -3.2149   -4.5090 C   0  0  0  0  0  0  0  0  0  0  0  0
   16.7569   -3.7617   -4.4826 Cl  0  0  0  0  0  0  0  0  0  0  0  0
   17.3741   -1.7516   -4.8365 C   0  0  0  0  0  0  0  0  0  0  0  0
   16.0741   -2.4981   -4.8869 C   0  0  0  0  0  0  0  0  0  0  0  0
   16.0363   -3.9614   -4.5593 N   0  0  0  0  0  3  0  0  0  0  0  0
   17.2986   -4.6782   -4.1815 C   0  0  0  0  0  0  0  0  0  0  0  0
   17.2609   -6.1415   -3.8539 C   0  0  0  0  0  0  0  0  0  0  0  0
   18.1232   -7.1032   -4.6164 Cl  0  0  0  0  0  0  0  0  0  0  0  0
  1  2  2  0
  2  3  1  0
  3  4  1  0
  4  5  1  0
  5  6  2  0
  6  7  1  0
  7  8  2  0
  8  9  1  0
  8 10  1  0
 10 11  2  0
  2 12  1  0
 12 13  2  3
 13 14  1  0
 14 15  2  0
 15 16  1  0
 16 17  2  0
 17 18  1  0
 18 19  1  0
 18 20  2  0
 20 21  1  0
 21 22  1  0
 22 23  2  0
 23 24  1  0
 24 25  1  0
 11  5  1  0
 20 14  1  0
 23 17  1  0
M  CHG  1  22   1
M  RAD  1  22   2
M  END
>  <docking_score>  (2) 
-3.8439999999999999

$$$$

     RDKit          3D

 25 27  0  0  0  0  0  0  0  0999 V2000
    4.1572   15.4025    7.3356 O   0  0  0  0  0  0  0  0  0  0  0  0
    4.3113   13.9137    7.4342 C   0  0  0  0  0  0  0  0  0  0  0  0
    4.5462   13.1004    6.1959 N   0  0  0  0  0  0  0  0  0  0  0  0
    4.6271   13.7760    4.8591 C   0  0  0  0  0  0  0  0  0  0  0  0
    5.9638   14.0384    4.2310 C   0  0  0  0  0  0  0  0  0  0  0  0
    6.2190   13.6274    2.8112 C   0  0  0  0  0  0  0  0  0  0  0  0
    7.5556   13.8897    2.1831 C   0  0  0  0  0  0  0  0  0  0  0  0
    8.6371   14.5631    2.9749 C   0  0  0  0  0  0  0  0  0  0  0  0
    9.9738   14.8255    2.3468 O   0  0  0  0  0  0  0  0  0  0  0  0
    8.3819   14.9742    4.3947 C   0  0  0  0  0  0  0  0  0  0  0  0
    7.0453   14.7118    5.0228 C   0  0  0  0  0  0  0  0  0  0  0  0
    4.2303   13.2382    8.7711 C   0  0  0  0  0  0  0  0  0  0  0  0
    5.4088   13.2670    9.6985 C   0  0  0  0  0  0  0  0  0  0  0  0
    5.3279   12.5915   11.0354 C   0  0  0  0  0  0  0  0  0  0  0  0
    6.5828   12.1622   11.7360 C   0  0  0  0  0  0  0  0  0  0  0  0
    6.5018   11.4867   13.0728 C   0  0  0  0  0  0  0  0  0  0  0  0
    5.1660   11.2405   13.7090 C   0  0  0  0  0  0  0  0  0  0  0  0
    3.9110   11.6698   13.0084 C   0  0  0  0  0  0  0  0  0  0  0  0
    3.3093   11.4608   13.4878 Cl  0  0  0  0  0  0  0  0  0  0  0  0
    3.9920   12.3453   11.6716 C   0  0  0  0  0  0  0  0  0  0  0  0
    2.6561   12.0990   12.3078 C   0  0  0  0  0  0  0  0  0  0  0  0
    2.5752   11.4235   13.6446 N   0  0  0  0  0  3  0  0  0  0  0  0
    3.8301   10.9943   14.3452 C   0  0  0  0  0  0  0  0  0  0  0  0
    3.7491   10.3187   15.6821 C   0  0  0  0  0  0  0  0  0  0  0  0
    3.2927    8.8930   15.7756 Cl  0  0  0  0  0  0  0  0  0  0  0  0
  1  2  2  0
  2  3  1  0
  3  4  1  0
  4  5  1  0
  5  6  2  0
  6  7  1  0
  7  8  2  0
  8  9  1  0
  8 10  1  0
 10 11  2  0
  2 12  1  0
 12 13  2  3
 13 14  1  0
 14 15  2  0
 15 16  1  0
 16 17  2  0
 17 18  1  0
 18 19  1  0
 18 20  2  0
 20 21  1  0
 21 22  1  0
 22 23  2  0
 23 24  1  0
 24 25  1  0
 11  5  1  0
 20 14  1  0
 23 17  1  0
M  CHG  1  22   1
M  RAD  1  22   2
M  END
>  <docking_score>  (3) 
-3.7850000000000001

$$$$
