
     RDKit          3D

 24 25  0  0  0  0  0  0  0  0999 V2000
   16.8132   -1.6730   -1.9903 C   0  0  0  0  0  0  0  0  0  0  0  0
   17.2779   -2.1057   -3.3602 C   0  0  1  0  0  0  0  0  0  0  0  0
   18.5703   -1.4807   -3.7707 C   0  0  0  0  0  0  0  0  0  0  0  0
   19.7382   -2.1562   -3.0699 C   0  0  2  0  0  0  0  0  0  0  0  0
   20.9232   -1.5267   -3.4163 O   0  0  0  0  0  0  0  0  0  0  0  0
   19.7647   -3.6511   -3.4186 C   0  0  2  0  0  0  0  0  0  0  0  0
   19.5834   -3.7914   -4.8017 O   0  0  0  0  0  0  0  0  0  0  0  0
   18.5005   -4.2193   -2.7719 C   0  0  1  0  0  0  0  0  0  0  0  0
   18.5214   -3.7661   -1.4433 O   0  0  0  0  0  0  0  0  0  0  0  0
   17.3514   -3.5863   -3.5168 C   0  0  1  0  0  0  0  0  0  0  0  0
   16.1069   -4.2665   -3.3706 N   0  0  0  0  0  0  0  0  0  0  0  0
   15.3951   -4.1767   -4.6281 C   0  0  0  0  0  3  0  0  0  0  0  0
   16.2585   -4.6092   -5.8007 C   0  0  1  0  0  0  0  0  0  0  0  0
   15.8619   -6.0399   -6.1215 C   0  0  1  0  0  0  0  0  0  0  0  0
   16.2356   -6.3864   -7.4151 O   0  0  0  0  0  0  0  0  0  0  0  0
   16.4488   -6.9398   -5.0775 C   0  0  0  0  0  0  0  0  0  0  0  0
   17.5131   -7.6790   -5.5951 O   0  0  0  0  0  0  0  0  0  0  0  0
   18.7297   -7.1780   -5.1183 C   0  0  0  0  0  3  0  0  0  0  0  0
   19.2630   -8.0294   -3.9625 C   0  0  0  0  0  0  0  0  0  0  0  0
   14.4587   -6.1002   -6.0530 O   0  0  0  0  0  0  0  0  0  0  0  0
   13.9051   -4.8567   -6.3635 C   0  0  0  0  0  0  0  0  0  0  0  0
   14.5783   -4.2153   -7.4042 O   0  0  0  0  0  0  0  0  0  0  0  0
   15.8346   -3.7558   -6.9852 C   0  0  1  0  0  0  0  0  0  0  0  0
   15.7843   -2.4225   -6.5737 O   0  0  0  0  0  0  0  0  0  0  0  0
  2  1  1  1
  2  3  1  0
  3  4  1  0
  4  5  1  6
  4  6  1  0
  6  7  1  6
  6  8  1  0
  8  9  1  1
  8 10  1  0
 10 11  1  1
 11 12  1  0
 13 12  1  1
 13 14  1  0
 14 15  1  6
 14 16  1  0
 16 17  1  0
 17 18  1  0
 18 19  1  0
 14 20  1  0
 20 21  1  0
 21 22  1  0
 22 23  1  0
 23 24  1  1
 10  2  1  0
 23 13  1  0
M  RAD  2  12   2  18   2
M  END
>  <docking_score>  (1) 
-4.4109999999999996

$$$$

     RDKit          3D

 24 25  0  0  0  0  0  0  0  0999 V2000
   19.7574   -4.0028   -1.7907 C   0  0  0  0  0  0  0  0  0  0  0  0
   19.9106   -4.1130   -3.2888 C   0  0  1  0  0  0  0  0  0  0  0  0
   20.6647   -5.3282   -3.7180 C   0  0  0  0  0  0  0  0  0  0  0  0
   19.7824   -6.5635   -3.6338 C   0  0  2  0  0  0  0  0  0  0  0  0
   20.5137   -7.6890   -3.9787 O   0  0  0  0  0  0  0  0  0  0  0  0
   18.5493   -6.3885   -4.5317 C   0  0  2  0  0  0  0  0  0  0  0  0
   18.9674   -5.8924   -5.7745 O   0  0  0  0  0  0  0  0  0  0  0  0
   17.7539   -5.2581   -3.8768 C   0  0  1  0  0  0  0  0  0  0  0  0
   17.6426   -5.6121   -2.5228 O   0  0  0  0  0  0  0  0  0  0  0  0
   18.6150   -4.0279   -4.0212 C   0  0  1  0  0  0  0  0  0  0  0  0
   17.9160   -2.7957   -3.8601 N   0  0  0  0  0  0  0  0  0  0  0  0
   16.5612   -2.9820   -4.3355 C   0  0  0  0  0  3  0  0  0  0  0  0
   16.1366   -1.8760   -5.2862 C   0  0  1  0  0  0  0  0  0  0  0  0
   15.9103   -2.5337   -6.6365 C   0  0  1  0  0  0  0  0  0  0  0  0
   15.1069   -1.7439   -7.4513 O   0  0  0  0  0  0  0  0  0  0  0  0
   17.2448   -2.8405   -7.2440 C   0  0  0  0  0  0  0  0  0  0  0  0
   18.1006   -1.7422   -7.1522 O   0  0  0  0  0  0  0  0  0  0  0  0
   19.4337   -2.1666   -7.1187 C   0  0  0  0  0  3  0  0  0  0  0  0
   20.3075   -1.1820   -6.3363 C   0  0  0  0  0  0  0  0  0  0  0  0
   15.2210   -3.7355   -6.3953 O   0  0  0  0  0  0  0  0  0  0  0  0
   14.4482   -3.6262   -5.2377 C   0  0  0  0  0  0  0  0  0  0  0  0
   13.8409   -2.3757   -5.1150 O   0  0  0  0  0  0  0  0  0  0  0  0
   14.7824   -1.3862   -4.7994 C   0  0  1  0  0  0  0  0  0  0  0  0
   14.8597   -1.1695   -3.4223 O   0  0  0  0  0  0  0  0  0  0  0  0
  2  1  1  1
  2  3  1  0
  3  4  1  0
  4  5  1  6
  4  6  1  0
  6  7  1  6
  6  8  1  0
  8  9  1  1
  8 10  1  0
 10 11  1  1
 11 12  1  0
 13 12  1  1
 13 14  1  0
 14 15  1  6
 14 16  1  0
 16 17  1  0
 17 18  1  0
 18 19  1  0
 14 20  1  0
 20 21  1  0
 21 22  1  0
 22 23  1  0
 23 24  1  1
 10  2  1  0
 23 13  1  0
M  RAD  2  12   2  18   2
M  END
>  <docking_score>  (2) 
-4.3390000000000004

$$$$

     RDKit          3D

 24 25  0  0  0  0  0  0  0  0999 V2000
   15.6934   -5.7739   -6.6863 C   0  0  0  0  0  0  0  0  0  0  0  0
   16.6515   -6.3318   -5.6614 C   0  0  1  0  0  0  0  0  0  0  0  0
   16.7634   -7.8202   -5.7054 C   0  0  0  0  0  0  0  0  0  0  0  0
   17.6299   -8.2576   -6.8756 C   0  0  2  0  0  0  0  0  0  0  0  0
   17.6751   -9.6413   -6.9367 O   0  0  0  0  0  0  0  0  0  0  0  0
   19.0327   -7.6473   -6.7455 C   0  0  2  0  0  0  0  0  0  0  0  0
   19.4746   -7.8184   -5.4261 O   0  0  0  0  0  0  0  0  0  0  0  0
   18.8158   -6.1436   -6.9218 C   0  0  1  0  0  0  0  0  0  0  0  0
   18.0527   -6.0084   -8.0924 O   0  0  0  0  0  0  0  0  0  0  0  0
   18.0065   -5.7134   -5.7236 C   0  0  1  0  0  0  0  0  0  0  0  0
   18.0377   -4.3121   -5.4623 N   0  0  0  0  0  0  0  0  0  0  0  0
   17.9856   -4.1209   -4.0282 C   0  0  0  0  0  3  0  0  0  0  0  0
   17.9158   -2.6503   -3.6542 C   0  0  1  0  0  0  0  0  0  0  0  0
   16.6189   -2.4636   -2.8858 C   0  0  1  0  0  0  0  0  0  0  0  0
   16.6523   -1.3043   -2.1190 O   0  0  0  0  0  0  0  0  0  0  0  0
   15.4819   -2.4928   -3.8608 C   0  0  0  0  0  0  0  0  0  0  0  0
   15.7288   -1.6471   -4.9428 O   0  0  0  0  0  0  0  0  0  0  0  0
   15.0202   -2.0800   -6.0692 C   0  0  0  0  0  3  0  0  0  0  0  0
   15.8763   -1.9753   -7.3345 C   0  0  0  0  0  0  0  0  0  0  0  0
   16.5053   -3.5537   -2.0049 O   0  0  0  0  0  0  0  0  0  0  0  0
   17.7713   -4.0261   -1.6535 C   0  0  0  0  0  0  0  0  0  0  0  0
   18.6920   -2.9959   -1.4571 O   0  0  0  0  0  0  0  0  0  0  0  0
   19.0511   -2.4009   -2.6745 C   0  0  1  0  0  0  0  0  0  0  0  0
   20.2176   -2.9622   -3.1977 O   0  0  0  0  0  0  0  0  0  0  0  0
  2  1  1  6
  2  3  1  0
  3  4  1  0
  4  5  1  1
  4  6  1  0
  6  7  1  1
  6  8  1  0
  8  9  1  6
  8 10  1  0
 10 11  1  6
 11 12  1  0
 13 12  1  1
 13 14  1  0
 14 15  1  1
 14 16  1  0
 16 17  1  0
 17 18  1  0
 18 19  1  0
 14 20  1  0
 20 21  1  0
 21 22  1  0
 22 23  1  0
 23 24  1  6
 10  2  1  0
 23 13  1  0
M  RAD  2  12   2  18   2
M  END
>  <docking_score>  (3) 
-4.1749999999999998

$$$$
