
     RDKit          3D

 23 24  0  0  0  0  0  0  0  0999 V2000
   16.5027   -0.9553   -5.8642 C   0  0  0  0  0  0  0  0  0  0  0  0
   15.7173   -2.0521   -6.5778 C   0  0  1  0  0  0  0  0  0  0  0  0
   16.5943   -2.5475   -7.6969 C   0  0  0  0  0  0  0  0  0  0  0  0
   16.0336   -3.8028   -8.3336 C   0  0  2  0  0  0  0  0  0  0  0  0
   14.7115   -3.5038   -8.7000 O   0  0  0  0  0  0  0  0  0  0  0  0
   15.9378   -4.8438   -7.2217 C   0  0  2  0  0  0  0  0  0  0  0  0
   15.3760   -5.9813   -7.8214 O   0  0  0  0  0  0  0  0  0  0  0  0
   14.9130   -4.3132   -6.2481 C   0  0  1  0  0  0  0  0  0  0  0  0
   14.3598   -5.2820   -5.4425 O   0  0  0  0  0  0  0  0  0  0  0  0
   15.4461   -3.1049   -5.5349 C   0  0  1  0  0  0  0  0  0  0  0  0
   16.4776   -3.3441   -4.6079 N   0  0  0  0  0  0  0  0  0  0  0  0
   16.1461   -3.3993   -3.2188 C   0  0  1  0  0  0  0  0  0  0  0  0
   16.4809   -4.8002   -2.7384 C   0  0  0  0  0  0  0  0  0  0  0  0
   17.8773   -5.0999   -3.2839 C   0  0  0  0  0  0  0  0  0  0  0  0
   18.1377   -6.4348   -2.9294 O   0  0  0  0  0  0  0  0  0  0  0  0
   17.8814   -5.0719   -4.6599 O   0  0  0  0  0  0  0  0  0  0  0  0
   18.8565   -4.3114   -2.7165 O   0  0  0  0  0  0  0  0  0  0  0  0
   19.2367   -3.2334   -3.5234 C   0  0  1  0  0  0  0  0  0  0  0  0
   19.4792   -3.6268   -4.8334 O   0  0  0  0  0  0  0  0  0  0  0  0
   18.2494   -2.0868   -3.4392 C   0  0  2  0  0  0  0  0  0  0  0  0
   18.8332   -0.8789   -3.1397 O   0  0  0  0  0  0  0  0  0  0  0  0
   17.1692   -2.5092   -2.4962 C   0  0  1  0  0  0  0  0  0  0  0  0
   16.6122   -1.5089   -1.7522 O   0  0  0  0  0  0  0  0  0  0  0  0
  2  1  1  1
  2  3  1  0
  3  4  1  0
  4  5  1  1
  4  6  1  0
  6  7  1  6
  6  8  1  0
  8  9  1  1
  8 10  1  0
 10 11  1  6
 12 11  1  6
 12 13  1  0
 13 14  1  0
 14 15  1  0
 14 16  1  0
 14 17  1  0
 17 18  1  0
 18 19  1  6
 18 20  1  0
 20 21  1  1
 20 22  1  0
 22 23  1  6
 10  2  1  0
 22 12  1  0
M  END
>  <docking_score>  (1) 
-5.5220000000000002

$$$$

     RDKit          3D

 23 24  0  0  0  0  0  0  0  0999 V2000
   13.9037   -4.7006   -5.8673 C   0  0  0  0  0  0  0  0  0  0  0  0
   14.8994   -5.7235   -5.3274 C   0  0  1  0  0  0  0  0  0  0  0  0
   15.6782   -6.2294   -6.5123 C   0  0  0  0  0  0  0  0  0  0  0  0
   16.8634   -7.0710   -6.0850 C   0  0  2  0  0  0  0  0  0  0  0  0
   16.3554   -8.0674   -5.2361 O   0  0  0  0  0  0  0  0  0  0  0  0
   17.7346   -6.1748   -5.2093 C   0  0  2  0  0  0  0  0  0  0  0  0
   18.8007   -6.9847   -4.7889 O   0  0  0  0  0  0  0  0  0  0  0  0
   16.9090   -5.8697   -3.9826 C   0  0  1  0  0  0  0  0  0  0  0  0
   17.6550   -5.4720   -2.8969 O   0  0  0  0  0  0  0  0  0  0  0  0
   15.7556   -4.9771   -4.3376 C   0  0  1  0  0  0  0  0  0  0  0  0
   16.0860   -3.6513   -4.6745 N   0  0  0  0  0  0  0  0  0  0  0  0
   16.7003   -2.8285   -3.6805 C   0  0  1  0  0  0  0  0  0  0  0  0
   18.0247   -2.3557   -4.2531 C   0  0  0  0  0  0  0  0  0  0  0  0
   17.7123   -1.8741   -5.6701 C   0  0  0  0  0  0  0  0  0  0  0  0
   18.9559   -1.5395   -6.2331 O   0  0  0  0  0  0  0  0  0  0  0  0
   17.2196   -2.9035   -6.4392 O   0  0  0  0  0  0  0  0  0  0  0  0
   16.9195   -0.7456   -5.6915 O   0  0  0  0  0  0  0  0  0  0  0  0
   15.5711   -1.0203   -5.9449 C   0  0  1  0  0  0  0  0  0  0  0  0
   15.4112   -1.8764   -7.0272 O   0  0  0  0  0  0  0  0  0  0  0  0
   14.8514   -1.5157   -4.7067 C   0  0  2  0  0  0  0  0  0  0  0  0
   13.7038   -0.8154   -4.4202 O   0  0  0  0  0  0  0  0  0  0  0  0
   15.8565   -1.5469   -3.6007 C   0  0  1  0  0  0  0  0  0  0  0  0
   15.3696   -1.2756   -2.3542 O   0  0  0  0  0  0  0  0  0  0  0  0
  2  1  1  6
  2  3  1  0
  3  4  1  0
  4  5  1  1
  4  6  1  0
  6  7  1  1
  6  8  1  0
  8  9  1  1
  8 10  1  0
 10 11  1  6
 12 11  1  6
 12 13  1  0
 13 14  1  0
 14 15  1  0
 14 16  1  0
 14 17  1  0
 17 18  1  0
 18 19  1  6
 18 20  1  0
 20 21  1  1
 20 22  1  0
 22 23  1  1
 10  2  1  0
 22 12  1  0
M  END
>  <docking_score>  (2) 
-5.4180000000000001

$$$$

     RDKit          3D

 23 24  0  0  0  0  0  0  0  0999 V2000
   15.0395   -2.1928   -4.2664 C   0  0  0  0  0  0  0  0  0  0  0  0
   16.5094   -1.9562   -3.9308 C   0  0  1  0  0  0  0  0  0  0  0  0
   16.7004   -2.4036   -2.5060 C   0  0  0  0  0  0  0  0  0  0  0  0
   18.1663   -2.4488   -2.1254 C   0  0  2  0  0  0  0  0  0  0  0  0
   18.6929   -1.1830   -2.4284 O   0  0  0  0  0  0  0  0  0  0  0  0
   18.8321   -3.4249   -3.0914 C   0  0  2  0  0  0  0  0  0  0  0  0
   20.1934   -3.4181   -2.7511 O   0  0  0  0  0  0  0  0  0  0  0  0
   18.7212   -2.7920   -4.4578 C   0  0  1  0  0  0  0  0  0  0  0  0
   19.6339   -3.2740   -5.3678 O   0  0  0  0  0  0  0  0  0  0  0  0
   17.2919   -2.7850   -4.9160 C   0  0  1  0  0  0  0  0  0  0  0  0
   16.7467   -4.0395   -5.2468 N   0  0  0  0  0  0  0  0  0  0  0  0
   16.7668   -4.4518   -6.6150 C   0  0  1  0  0  0  0  0  0  0  0  0
   17.6415   -5.6906   -6.6918 C   0  0  0  0  0  0  0  0  0  0  0  0
   17.1800   -6.5923   -5.5467 C   0  0  0  0  0  0  0  0  0  0  0  0
   18.0623   -7.6864   -5.5546 O   0  0  0  0  0  0  0  0  0  0  0  0
   17.3646   -5.9732   -4.3316 O   0  0  0  0  0  0  0  0  0  0  0  0
   15.9013   -7.0771   -5.7266 O   0  0  0  0  0  0  0  0  0  0  0  0
   14.9349   -6.3754   -4.9975 C   0  0  1  0  0  0  0  0  0  0  0  0
   15.3169   -6.1901   -3.6748 O   0  0  0  0  0  0  0  0  0  0  0  0
   14.5487   -5.0752   -5.6735 C   0  0  2  0  0  0  0  0  0  0  0  0
   13.1935   -4.9290   -5.8515 O   0  0  0  0  0  0  0  0  0  0  0  0
   15.3573   -4.9780   -6.9270 C   0  0  1  0  0  0  0  0  0  0  0  0
   14.7465   -4.3510   -7.9750 O   0  0  0  0  0  0  0  0  0  0  0  0
  2  1  1  6
  2  3  1  0
  3  4  1  0
  4  5  1  6
  4  6  1  0
  6  7  1  1
  6  8  1  0
  8  9  1  6
  8 10  1  0
 10 11  1  1
 12 11  1  1
 12 13  1  0
 13 14  1  0
 14 15  1  0
 14 16  1  0
 14 17  1  0
 17 18  1  0
 18 19  1  1
 18 20  1  0
 20 21  1  6
 20 22  1  0
 22 23  1  6
 10  2  1  0
 22 12  1  0
M  END
>  <docking_score>  (3) 
-4.8970000000000002

$$$$
