
     RDKit          3D

 32 32  0  0  0  0  0  0  0  0999 V2000
   15.1462   -1.1535   -3.8316 C   0  0  0  0  0  0  0  0  0  0  0  0
   15.1922   -0.9501   -5.3139 C   0  0  0  0  0  0  0  0  0  0  0  0
   14.8786    0.4861   -5.6605 C   0  0  0  0  0  0  0  0  0  0  0  0
   14.3255   -1.8977   -6.0878 C   0  0  0  0  0  0  0  0  0  0  0  0
   14.9027   -3.2893   -6.1041 C   0  0  0  0  0  0  0  0  0  0  0  0
   14.0116   -4.2831   -5.4284 C   0  0  0  0  0  0  0  0  0  0  0  0
   14.0398   -5.6394   -6.0796 C   0  0  1  0  0  0  0  0  0  0  0  0
   14.8723   -5.6629   -7.3439 C   0  0  0  0  0  0  0  0  0  0  0  0
   14.5438   -6.6559   -5.0627 C   0  0  0  0  0  3  0  0  0  0  0  0
   15.2241   -5.8809   -3.9534 C   0  0  0  0  0  0  0  0  0  0  0  0
   16.7078   -5.8089   -4.1535 C   0  0  0  0  0  0  0  0  0  0  0  0
   17.3694   -5.1388   -2.9829 C   0  0  2  0  0  0  0  0  0  0  0  0
   16.3594   -5.1221   -1.8433 C   0  0  0  0  0  0  0  0  0  0  0  0
   17.7485   -3.7231   -3.3474 C   0  0  0  0  0  3  0  0  0  0  0  0
   19.2333   -3.5427   -3.4336 C   0  0  1  0  0  0  0  0  0  0  0  0
   19.9215   -4.8685   -3.4827 C   0  0  1  0  0  0  0  0  0  0  0  0
   21.1499   -4.8219   -2.7198 N   0  0  0  0  0  1  0  0  0  0  0  0
   19.0318   -5.9099   -3.0923 N   0  0  0  0  0  2  0  0  0  0  0  0
   19.3766   -7.2107   -3.5641 C   0  0  0  0  0  0  0  0  0  0  0  0
   20.3553   -7.2190   -4.6894 C   0  0  0  0  0  0  0  0  0  0  0  0
   19.7314   -7.9705   -5.8521 C   0  0  0  0  0  0  0  0  0  0  0  0
   19.4224   -7.0228   -6.9826 C   0  0  0  0  0  0  0  0  0  0  0  0
   20.6025   -6.5418   -7.5425 O   0  0  0  0  0  0  0  0  0  0  0  0
   20.2894   -5.4241   -8.3388 C   0  0  0  0  0  0  0  0  0  0  0  0
   21.3809   -4.3668   -8.2122 C   0  0  0  0  0  0  0  0  0  0  0  0
   20.7146   -3.0677   -7.8315 C   0  0  0  0  0  0  0  0  0  0  0  0
   21.1705   -2.5309   -6.5110 C   0  0  1  0  0  0  0  0  0  0  0  0
   20.6885   -1.2336   -6.3734 O   0  0  0  0  0  0  0  0  0  0  0  0
   20.7831   -3.3861   -5.3424 C   0  0  0  0  0  0  0  0  0  0  0  0
   19.5893   -2.7328   -4.6391 C   0  0  1  0  0  0  0  0  0  0  0  0
   18.3918   -2.7009   -5.5657 C   0  0  0  0  0  3  0  0  0  0  0  0
   18.0332   -4.0768   -6.0799 C   0  0  0  0  0  2  0  0  0  0  0  0
  1  2  1  0
  2  3  1  0
  2  4  1  0
  4  5  1  0
  5  6  1  0
  6  7  1  0
  7  8  1  6
  7  9  1  0
  9 10  1  0
 10 11  1  0
 11 12  1  0
 12 13  1  1
 12 14  1  0
 15 14  1  6
 15 16  1  0
 16 17  1  1
 16 18  1  0
 18 19  1  0
 19 20  1  0
 20 21  1  0
 21 22  1  0
 22 23  1  0
 23 24  1  0
 24 25  1  0
 25 26  1  0
 26 27  1  0
 27 28  1  1
 27 29  1  0
 29 30  1  0
 30 31  1  6
 31 32  1  0
 30 15  1  0
M  CHG  2  17   1  18  -1
M  RAD  5   9   2  14   2  17   2  31   2  32   3
M  END
>  <docking_score>  (1) 
-3.6840000000000002

$$$$

     RDKit          3D

 32 32  0  0  0  0  0  0  0  0999 V2000
   10.5304   15.7957    7.0556 C   0  0  0  0  0  0  0  0  0  0  0  0
   10.3820   14.9925    5.8011 C   0  0  0  0  0  0  0  0  0  0  0  0
   11.1628   15.6245    4.6733 C   0  0  0  0  0  0  0  0  0  0  0  0
    8.9588   14.7399    5.4023 C   0  0  0  0  0  0  0  0  0  0  0  0
    8.7219   15.0744    3.9525 C   0  0  0  0  0  0  0  0  0  0  0  0
    8.0270   13.9704    3.2199 C   0  0  0  0  0  0  0  0  0  0  0  0
    6.5717   14.2560    2.9650 C   0  0  1  0  0  0  0  0  0  0  0  0
    6.0953   15.5184    3.6517 C   0  0  0  0  0  0  0  0  0  0  0  0
    6.3463   14.3226    1.4597 C   0  0  0  0  0  3  0  0  0  0  0  0
    5.4802   13.1383    1.0832 C   0  0  0  0  0  0  0  0  0  0  0  0
    4.8949   12.4706    2.2907 C   0  0  0  0  0  0  0  0  0  0  0  0
    5.7368   11.2989    2.7097 C   0  0  2  0  0  0  0  0  0  0  0  0
    6.1082   10.5358    1.4452 C   0  0  0  0  0  0  0  0  0  0  0  0
    4.9465   10.4013    3.6319 C   0  0  0  0  0  3  0  0  0  0  0  0
    5.8100    9.3662    4.2859 C   0  0  1  0  0  0  0  0  0  0  0  0
    5.9096    9.6178    5.7558 C   0  0  1  0  0  0  0  0  0  0  0  0
    7.2463    9.3216    6.2234 N   0  0  0  0  0  1  0  0  0  0  0  0
    5.4593   10.9316    6.0711 N   0  0  0  0  0  2  0  0  0  0  0  0
    5.0315   11.1190    7.4186 C   0  0  0  0  0  0  0  0  0  0  0  0
    4.7497    9.8544    8.1574 C   0  0  0  0  0  0  0  0  0  0  0  0
    3.3211    9.9147    8.6684 C   0  0  0  0  0  0  0  0  0  0  0  0
    2.4604    8.9177    7.9357 C   0  0  0  0  0  0  0  0  0  0  0  0
    2.8378    7.6202    8.2696 O   0  0  0  0  0  0  0  0  0  0  0  0
    2.2680    6.7397    7.3308 C   0  0  0  0  0  0  0  0  0  0  0  0
    3.2418    5.6107    7.0111 C   0  0  0  0  0  0  0  0  0  0  0  0
    3.4057    5.5613    5.5119 C   0  0  0  0  0  0  0  0  0  0  0  0
    4.8104    5.8097    5.0594 C   0  0  1  0  0  0  0  0  0  0  0  0
    4.8971    5.5034    3.7055 O   0  0  0  0  0  0  0  0  0  0  0  0
    5.3012    7.1981    5.3395 C   0  0  0  0  0  0  0  0  0  0  0  0
    5.2625    7.9979    4.0335 C   0  0  1  0  0  0  0  0  0  0  0  0
    3.8344    8.1352    3.5484 C   0  0  0  0  0  3  0  0  0  0  0  0
    3.6431    7.5486    2.1682 C   0  0  0  0  0  2  0  0  0  0  0  0
  1  2  1  0
  2  3  1  0
  2  4  1  0
  4  5  1  0
  5  6  1  0
  6  7  1  0
  7  8  1  1
  7  9  1  0
  9 10  1  0
 10 11  1  0
 11 12  1  0
 12 13  1  6
 12 14  1  0
 15 14  1  6
 15 16  1  0
 16 17  1  6
 16 18  1  0
 18 19  1  0
 19 20  1  0
 20 21  1  0
 21 22  1  0
 22 23  1  0
 23 24  1  0
 24 25  1  0
 25 26  1  0
 26 27  1  0
 27 28  1  6
 27 29  1  0
 29 30  1  0
 30 31  1  1
 31 32  1  0
 30 15  1  0
M  CHG  2  17   1  18  -1
M  RAD  5   9   2  14   2  17   2  31   2  32   3
M  END
>  <docking_score>  (2) 
-3.6589999999999998

$$$$
