
     RDKit          3D

 31 31  0  0  0  0  0  0  0  0999 V2000
    3.0696    8.1821    8.8285 C   0  0  0  0  0  0  0  0  0  0  0  0
    3.6316    8.8737    7.5975 C   0  0  0  0  0  0  0  0  0  0  0  0
    4.0760    7.8556    6.5937 C   0  0  2  0  0  0  0  0  0  0  0  0
    5.3073    8.2941    5.8678 C   0  0  0  0  0  0  0  0  0  0  0  0
    2.9656    7.4863    5.6703 C   0  0  0  0  0  0  0  0  0  0  0  0
    2.2579    6.5235    5.9983 O   0  0  0  0  0  0  0  0  0  0  0  0
    2.7568    8.1973    4.5132 O   0  0  0  0  0  0  0  0  0  0  0  0
    3.1569    7.6602    3.2813 C   0  0  0  0  0  3  0  0  0  0  0  0
    3.1179    8.7302    2.2143 C   0  0  0  0  0  0  0  0  0  0  0  0
    3.0467   10.0721    2.9008 C   0  0  2  0  0  0  0  0  0  0  0  0
    2.2634   11.0748    2.0838 C   0  0  0  0  0  0  0  0  0  0  0  0
    4.4092   10.5662    3.1642 C   0  0  0  0  0  0  0  0  0  0  0  0
    5.4890    9.9814    2.7087 C   0  0  0  0  0  0  0  0  0  0  0  0
    6.8230   10.4876    2.9820 C   0  0  0  0  0  0  0  0  0  0  0  0
    7.1144   11.7315    2.6992 C   0  0  0  0  0  0  0  0  0  0  0  0
    6.1614   12.7024    2.1013 C   0  0  2  0  0  0  0  0  0  0  0  0
    6.9333   13.4307    0.9958 C   0  0  0  0  0  0  0  0  0  0  0  0
    5.7499   13.7657    3.0953 C   0  0  2  0  0  0  0  0  0  0  0  0
    6.2883   13.3844    4.4558 C   0  0  0  0  0  0  0  0  0  0  0  0
    6.2014   14.6071    5.3399 C   0  0  0  0  0  0  0  0  0  0  0  0
    6.6484   14.1726    6.7391 C   0  0  0  0  0  3  0  0  0  0  0  0
    6.0414   15.1813    7.6931 C   0  0  0  0  0  0  0  0  0  0  0  0
    4.8612   14.5985    8.3998 C   0  0  1  0  0  0  0  0  0  0  0  0
    4.9322   13.2255    8.3514 O   0  0  0  0  0  0  0  0  0  0  0  0
    4.8430   15.0389    9.7773 N   0  0  0  0  0  0  0  0  0  0  0  0
    3.5298   15.5305   10.0878 C   0  0  0  0  0  0  0  0  0  0  0  0
    2.6346   14.4824   10.3301 O   0  0  0  0  0  0  0  0  0  0  0  0
    4.3742   13.9567    3.1213 O   0  0  0  0  0  0  0  0  0  0  0  0
    3.6954   12.8159    3.3514 N   0  0  0  0  0  0  0  0  0  0  0  0
    4.5093   11.8120    4.0071 C   0  0  1  0  0  0  0  0  0  0  0  0
    3.8366   11.5004    5.2778 N   0  0  0  0  0  0  0  0  0  0  0  0
  1  2  1  0
  2  3  1  0
  3  4  1  6
  3  5  1  0
  5  6  2  0
  5  7  1  0
  7  8  1  0
  8  9  1  0
  9 10  1  0
 10 11  1  6
 10 12  1  0
 12 13  2  3
 13 14  1  0
 14 15  2  3
 15 16  1  0
 16 17  1  6
 16 18  1  0
 18 19  1  1
 19 20  1  0
 20 21  1  0
 21 22  1  0
 22 23  1  0
 23 24  1  1
 23 25  1  0
 25 26  1  0
 26 27  1  0
 18 28  1  0
 28 29  1  0
 29 30  1  0
 30 31  1  1
 30 12  1  0
M  RAD  2   8   2  21   2
M  END
>  <docking_score>  (1) 
-2.9060000000000001

$$$$

     RDKit          3D

 31 31  0  0  0  0  0  0  0  0999 V2000
    2.5899    9.7648   15.9532 C   0  0  0  0  0  0  0  0  0  0  0  0
    3.0297   11.2121   15.8062 C   0  0  0  0  0  0  0  0  0  0  0  0
    4.0735   11.3263   14.7390 C   0  0  2  0  0  0  0  0  0  0  0  0
    4.9949   12.4775   14.9862 C   0  0  0  0  0  0  0  0  0  0  0  0
    3.4575   11.3646   13.3821 C   0  0  0  0  0  0  0  0  0  0  0  0
    2.2599   11.6756   13.3166 O   0  0  0  0  0  0  0  0  0  0  0  0
    4.2055   11.0643   12.2692 O   0  0  0  0  0  0  0  0  0  0  0  0
    3.7241   10.1381   11.3329 C   0  0  0  0  0  3  0  0  0  0  0  0
    4.4115   10.3440   10.0025 C   0  0  0  0  0  0  0  0  0  0  0  0
    3.8282   11.5792    9.3615 C   0  0  2  0  0  0  0  0  0  0  0  0
    2.3183   11.5183    9.3071 C   0  0  0  0  0  0  0  0  0  0  0  0
    4.3913   11.7488    8.0109 C   0  0  0  0  0  0  0  0  0  0  0  0
    4.5935   10.7536    7.1837 C   0  0  0  0  0  0  0  0  0  0  0  0
    5.1506   10.9457    5.8558 C   0  0  0  0  0  0  0  0  0  0  0  0
    4.5917   11.7989    5.0360 C   0  0  0  0  0  0  0  0  0  0  0  0
    3.3936   12.6154    5.3620 C   0  0  2  0  0  0  0  0  0  0  0  0
    2.4746   12.5300    4.1386 C   0  0  0  0  0  0  0  0  0  0  0  0
    3.7417   14.0786    5.5230 C   0  0  2  0  0  0  0  0  0  0  0  0
    5.2470   14.2188    5.4993 C   0  0  0  0  0  0  0  0  0  0  0  0
    5.5704   15.5630    4.8889 C   0  0  0  0  0  0  0  0  0  0  0  0
    6.2408   15.2853    3.5399 C   0  0  0  0  0  3  0  0  0  0  0  0
    7.6120   14.7321    3.8717 C   0  0  0  0  0  0  0  0  0  0  0  0
    8.0040   13.6688    2.8982 C   0  0  1  0  0  0  0  0  0  0  0  0
    7.7977   12.4323    3.4648 O   0  0  0  0  0  0  0  0  0  0  0  0
    7.2179   13.7906    1.6903 N   0  0  0  0  0  0  0  0  0  0  0  0
    6.6914   12.4986    1.3496 C   0  0  0  0  0  0  0  0  0  0  0  0
    5.3537   12.3713    1.7407 O   0  0  0  0  0  0  0  0  0  0  0  0
    3.1921   14.6258    6.6755 O   0  0  0  0  0  0  0  0  0  0  0  0
    3.5275   13.9418    7.7867 N   0  0  0  0  0  0  0  0  0  0  0  0
    4.7354   13.1608    7.6105 C   0  0  1  0  0  0  0  0  0  0  0  0
    5.6927   13.6483    8.6156 N   0  0  0  0  0  0  0  0  0  0  0  0
  1  2  1  0
  2  3  1  0
  3  4  1  1
  3  5  1  0
  5  6  2  0
  5  7  1  0
  7  8  1  0
  8  9  1  0
  9 10  1  0
 10 11  1  6
 10 12  1  0
 12 13  2  3
 13 14  1  0
 14 15  2  3
 15 16  1  0
 16 17  1  6
 16 18  1  0
 18 19  1  1
 19 20  1  0
 20 21  1  0
 21 22  1  0
 22 23  1  0
 23 24  1  1
 23 25  1  0
 25 26  1  0
 26 27  1  0
 18 28  1  0
 28 29  1  0
 29 30  1  0
 30 31  1  1
 30 12  1  0
M  RAD  2   8   2  21   2
M  END
>  <docking_score>  (2) 
-2.8860000000000001

$$$$

     RDKit          3D

 31 31  0  0  0  0  0  0  0  0999 V2000
   15.9293   -1.9492   -2.4500 C   0  0  0  0  0  0  0  0  0  0  0  0
   16.2169   -3.0291   -3.4798 C   0  0  0  0  0  0  0  0  0  0  0  0
   16.3583   -2.4184   -4.8394 C   0  0  2  0  0  0  0  0  0  0  0  0
   16.9612   -1.0519   -4.7729 C   0  0  0  0  0  0  0  0  0  0  0  0
   15.0642   -2.4399   -5.5791 C   0  0  0  0  0  0  0  0  0  0  0  0
   14.0837   -1.9380   -5.0117 O   0  0  0  0  0  0  0  0  0  0  0  0
   14.9881   -2.9973   -6.8328 O   0  0  0  0  0  0  0  0  0  0  0  0
   15.7108   -2.4326   -7.8934 C   0  0  0  0  0  3  0  0  0  0  0  0
   16.9743   -3.2257   -8.1374 C   0  0  0  0  0  0  0  0  0  0  0  0
   16.5824   -4.6582   -8.4043 C   0  0  2  0  0  0  0  0  0  0  0  0
   15.1075   -4.7838   -8.7131 C   0  0  0  0  0  0  0  0  0  0  0  0
   16.9451   -5.4943   -7.2470 C   0  0  0  0  0  0  0  0  0  0  0  0
   16.1236   -6.3480   -6.6884 C   0  0  0  0  0  0  0  0  0  0  0  0
   16.5042   -7.1621   -5.5470 C   0  0  0  0  0  0  0  0  0  0  0  0
   17.5790   -7.9057   -5.6113 C   0  0  0  0  0  0  0  0  0  0  0  0
   18.4730   -7.9893   -6.7954 C   0  0  2  0  0  0  0  0  0  0  0  0
   18.7738   -9.4783   -6.9974 C   0  0  0  0  0  0  0  0  0  0  0  0
   19.8065   -7.3238   -6.5367 C   0  0  2  0  0  0  0  0  0  0  0  0
   19.7325   -6.6011   -5.2106 C   0  0  0  0  0  0  0  0  0  0  0  0
   21.1265   -6.1256   -4.8718 C   0  0  0  0  0  0  0  0  0  0  0  0
   21.0543   -5.5096   -3.4712 C   0  0  0  0  0  3  0  0  0  0  0  0
   21.3811   -4.0413   -3.6537 C   0  0  0  0  0  0  0  0  0  0  0  0
   20.5059   -3.1925   -2.7901 C   0  0  1  0  0  0  0  0  0  0  0  0
   19.7153   -4.0010   -2.0066 O   0  0  0  0  0  0  0  0  0  0  0  0
   21.3179   -2.3401   -1.9499 N   0  0  0  0  0  0  0  0  0  0  0  0
   20.4598   -1.4162   -1.2626 C   0  0  0  0  0  0  0  0  0  0  0  0
   21.1209   -0.2152   -0.9815 O   0  0  0  0  0  0  0  0  0  0  0  0
   20.1767   -6.4701   -7.5680 O   0  0  0  0  0  0  0  0  0  0  0  0
   19.2374   -5.5425   -7.8375 N   0  0  0  0  0  0  0  0  0  0  0  0
   18.3455   -5.3188   -6.7174 C   0  0  1  0  0  0  0  0  0  0  0  0
   18.4735   -3.8961   -6.3654 N   0  0  0  0  0  0  0  0  0  0  0  0
  1  2  1  0
  2  3  1  0
  3  4  1  1
  3  5  1  0
  5  6  2  0
  5  7  1  0
  7  8  1  0
  8  9  1  0
  9 10  1  0
 10 11  1  1
 10 12  1  0
 12 13  2  3
 13 14  1  0
 14 15  2  3
 15 16  1  0
 16 17  1  1
 16 18  1  0
 18 19  1  1
 19 20  1  0
 20 21  1  0
 21 22  1  0
 22 23  1  0
 23 24  1  1
 23 25  1  0
 25 26  1  0
 26 27  1  0
 18 28  1  0
 28 29  1  0
 29 30  1  0
 30 31  1  6
 30 12  1  0
M  RAD  2   8   2  21   2
M  END
>  <docking_score>  (3) 
-2.1589999999999998

$$$$
