
     RDKit          3D

 27 30  0  0  0  0  0  0  0  0999 V2000
   19.8610   -1.8347   -8.3444 O   0  0  0  0  0  0  0  0  0  0  0  0
   19.3370   -2.5131   -7.4232 C   0  0  0  0  0  0  0  0  0  0  0  0
   18.1689   -1.8203   -6.8979 N   0  0  0  0  0  0  0  0  0  0  0  0
   17.0025   -2.3481   -6.2547 C   0  0  0  0  0  0  0  0  0  0  0  0
   16.0818   -1.3570   -6.0920 C   0  0  0  0  0  0  0  0  0  0  0  0
   14.8314   -1.6307   -5.5071 C   0  0  0  0  0  0  0  0  0  0  0  0
   13.6733   -0.3483   -5.2538 Cl  0  0  0  0  0  0  0  0  0  0  0  0
   14.5654   -2.9068   -5.1211 C   0  0  0  0  0  0  0  0  0  0  0  0
   15.5024   -3.9281   -5.2895 C   0  0  0  0  0  0  0  0  0  0  0  0
   15.0988   -5.5352   -4.8299 Cl  0  0  0  0  0  0  0  0  0  0  0  0
   16.7280   -3.6620   -5.8451 C   0  0  0  0  0  0  0  0  0  0  0  0
   19.9928   -3.7389   -7.0922 N   0  0  0  0  0  0  0  0  0  0  0  0
   19.7433   -4.9810   -6.5744 C   0  0  1  0  0  0  0  0  0  0  0  0
   20.6726   -6.0537   -6.7361 C   0  0  0  0  0  0  0  0  0  0  0  0
   20.0118   -7.3504   -6.3257 C   0  0  0  0  0  0  0  0  0  0  0  0
   18.6706   -7.8064   -7.3929 S   0  0  0  0  0  0  0  0  0  0  0  0
   17.0929   -7.1451   -6.9571 C   0  0  0  0  0  0  0  0  0  0  0  0
   16.7202   -6.1243   -6.1096 C   0  0  0  0  0  0  0  0  0  0  0  0
   17.4519   -4.8850   -5.8346 C   0  0  2  0  0  0  0  0  0  0  0  0
   18.8017   -5.0640   -5.3271 C   0  0  2  0  0  0  0  0  0  0  0  0
   19.3886   -4.1566   -4.3294 C   0  0  0  0  0  0  0  0  0  0  0  0
   20.2329   -3.1162   -4.4445 C   0  0  0  0  0  0  0  0  0  0  0  0
   20.8212   -2.4993   -3.3345 C   0  0  0  0  0  0  0  0  0  0  0  0
   20.5813   -2.9196   -2.0728 N   0  0  0  0  0  0  0  0  0  0  0  0
   19.7365   -3.9689   -1.9355 C   0  0  0  0  0  0  0  0  0  0  0  0
   19.1541   -4.5665   -3.0034 C   0  0  0  0  0  0  0  0  0  0  0  0
   17.9253   -5.8089   -2.6989 Cl  0  0  0  0  0  0  0  0  0  0  0  0
  1  2  2  0
  2  3  1  0
  3  4  1  0
  4  5  2  0
  5  6  1  0
  6  7  1  0
  6  8  2  0
  8  9  1  0
  9 10  1  0
  9 11  2  0
  2 12  1  0
 12 13  1  0
 13 14  1  1
 14 15  1  0
 15 16  1  0
 16 17  1  0
 17 18  2  3
 18 19  1  0
 19 20  1  0
 20 21  1  1
 21 22  2  0
 22 23  1  0
 23 24  2  0
 24 25  1  0
 25 26  2  0
 26 27  1  0
 11  4  1  0
 19 11  1  1
 20 13  1  0
 26 21  1  0
M  END
>  <docking_score>  (1) 
-5.3840000000000003

$$$$

     RDKit          3D

 27 30  0  0  0  0  0  0  0  0999 V2000
   15.9441   -4.9740   -1.8407 O   0  0  0  0  0  0  0  0  0  0  0  0
   16.8527   -4.5648   -2.6092 C   0  0  0  0  0  0  0  0  0  0  0  0
   16.3240   -4.3873   -3.9543 N   0  0  0  0  0  0  0  0  0  0  0  0
   16.7630   -3.5167   -5.0042 C   0  0  0  0  0  0  0  0  0  0  0  0
   15.8658   -3.5476   -6.0292 C   0  0  0  0  0  0  0  0  0  0  0  0
   16.0580   -2.7503   -7.1728 C   0  0  0  0  0  0  0  0  0  0  0  0
   14.9331   -2.8300   -8.5063 Cl  0  0  0  0  0  0  0  0  0  0  0  0
   17.1522   -1.9448   -7.2210 C   0  0  0  0  0  0  0  0  0  0  0  0
   18.0728   -1.9046   -6.1720 C   0  0  0  0  0  0  0  0  0  0  0  0
   19.4143   -0.8325   -6.2601 Cl  0  0  0  0  0  0  0  0  0  0  0  0
   17.8968   -2.6919   -5.0625 C   0  0  0  0  0  0  0  0  0  0  0  0
   18.1470   -4.4040   -2.0251 N   0  0  0  0  0  0  0  0  0  0  0  0
   19.3018   -3.6826   -2.1629 C   0  0  1  0  0  0  0  0  0  0  0  0
   20.2619   -3.6086   -1.1079 C   0  0  0  0  0  0  0  0  0  0  0  0
   21.2702   -2.5281   -1.4278 C   0  0  0  0  0  0  0  0  0  0  0  0
   20.5559   -0.9047   -1.4459 S   0  0  0  0  0  0  0  0  0  0  0  0
   19.8751   -0.3902   -2.9912 C   0  0  0  0  0  0  0  0  0  0  0  0
   19.5373   -1.0876   -4.1308 C   0  0  0  0  0  0  0  0  0  0  0  0
   19.0124   -2.4529   -4.2150 C   0  0  2  0  0  0  0  0  0  0  0  0
   19.8513   -3.4757   -3.6136 C   0  0  2  0  0  0  0  0  0  0  0  0
   19.9707   -4.8253   -4.1860 C   0  0  0  0  0  0  0  0  0  0  0  0
   19.5248   -6.0234   -3.7683 C   0  0  0  0  0  0  0  0  0  0  0  0
   19.9152   -7.2233   -4.3736 C   0  0  0  0  0  0  0  0  0  0  0  0
   20.7752   -7.2513   -5.4156 N   0  0  0  0  0  0  0  0  0  0  0  0
   21.2389   -6.0552   -5.8490 C   0  0  0  0  0  0  0  0  0  0  0  0
   20.8591   -4.8873   -5.2760 C   0  0  0  0  0  0  0  0  0  0  0  0
   21.3813   -3.3732   -6.0384 Cl  0  0  0  0  0  0  0  0  0  0  0  0
  1  2  2  0
  2  3  1  0
  3  4  1  0
  4  5  2  0
  5  6  1  0
  6  7  1  0
  6  8  2  0
  8  9  1  0
  9 10  1  0
  9 11  2  0
  2 12  1  0
 12 13  1  0
 13 14  1  1
 14 15  1  0
 15 16  1  0
 16 17  1  0
 17 18  2  3
 18 19  1  0
 19 20  1  0
 20 21  1  6
 21 22  2  0
 22 23  1  0
 23 24  2  0
 24 25  1  0
 25 26  2  0
 26 27  1  0
 11  4  1  0
 19 11  1  6
 20 13  1  0
 26 21  1  0
M  END
>  <docking_score>  (2) 
-5.2140000000000004

$$$$

     RDKit          3D

 27 30  0  0  0  0  0  0  0  0999 V2000
   19.9303   -3.1022   -1.5931 O   0  0  0  0  0  0  0  0  0  0  0  0
   19.5049   -3.2223   -2.7714 C   0  0  0  0  0  0  0  0  0  0  0  0
   19.8402   -2.0349   -3.5448 N   0  0  0  0  0  0  0  0  0  0  0  0
   20.0358   -1.8854   -4.9562 C   0  0  0  0  0  0  0  0  0  0  0  0
   20.5143   -0.6377   -5.2221 C   0  0  0  0  0  0  0  0  0  0  0  0
   20.8173   -0.2535   -6.5416 C   0  0  0  0  0  0  0  0  0  0  0  0
   21.3823    1.3629   -6.8850 Cl  0  0  0  0  0  0  0  0  0  0  0  0
   20.6303   -1.1609   -7.5365 C   0  0  0  0  0  0  0  0  0  0  0  0
   20.1451   -2.4428   -7.2705 C   0  0  0  0  0  0  0  0  0  0  0  0
   19.9729   -3.5698   -8.5576 Cl  0  0  0  0  0  0  0  0  0  0  0  0
   19.8342   -2.8156   -5.9874 C   0  0  0  0  0  0  0  0  0  0  0  0
   18.7934   -4.4264   -3.0648 N   0  0  0  0  0  0  0  0  0  0  0  0
   18.4942   -5.2677   -4.1020 C   0  0  1  0  0  0  0  0  0  0  0  0
   18.0065   -6.5899   -3.8691 C   0  0  0  0  0  0  0  0  0  0  0  0
   18.0435   -7.3691   -5.1645 C   0  0  0  0  0  0  0  0  0  0  0  0
   19.6932   -7.6397   -5.7572 S   0  0  0  0  0  0  0  0  0  0  0  0
   20.3507   -6.3648   -6.7860 C   0  0  0  0  0  0  0  0  0  0  0  0
   19.9539   -5.0652   -7.0158 C   0  0  0  0  0  0  0  0  0  0  0  0
   19.3325   -4.1433   -6.0615 C   0  0  2  0  0  0  0  0  0  0  0  0
   18.0932   -4.6130   -5.4658 C   0  0  2  0  0  0  0  0  0  0  0  0
   16.9812   -3.7023   -5.1538 C   0  0  0  0  0  0  0  0  0  0  0  0
   16.8015   -2.8047   -4.1687 C   0  0  0  0  0  0  0  0  0  0  0  0
   15.5745   -2.1695   -3.9453 C   0  0  0  0  0  0  0  0  0  0  0  0
   14.4875   -2.4274   -4.7057 N   0  0  0  0  0  0  0  0  0  0  0  0
   14.6467   -3.3315   -5.7010 C   0  0  0  0  0  0  0  0  0  0  0  0
   15.8332   -3.9444   -5.9316 C   0  0  0  0  0  0  0  0  0  0  0  0
   15.9788   -4.9695   -7.3718 Cl  0  0  0  0  0  0  0  0  0  0  0  0
  1  2  2  0
  2  3  1  0
  3  4  1  0
  4  5  2  0
  5  6  1  0
  6  7  1  0
  6  8  2  0
  8  9  1  0
  9 10  1  0
  9 11  2  0
  2 12  1  0
 12 13  1  0
 13 14  1  1
 14 15  1  0
 15 16  1  0
 16 17  1  0
 17 18  2  3
 18 19  1  0
 19 20  1  0
 20 21  1  1
 21 22  2  0
 22 23  1  0
 23 24  2  0
 24 25  1  0
 25 26  2  0
 26 27  1  0
 11  4  1  0
 19 11  1  6
 20 13  1  0
 26 21  1  0
M  END
>  <docking_score>  (3) 
-4.3369999999999997

$$$$
