
     RDKit          3D

 58 58  0  0  0  0  0  0  0  0999 V2000
   12.5010   -5.0404   -6.3594 C   0  0  0  0  0  0  0  0  0  0  0  0
   12.7158   -4.2158   -5.2632 O   0  0  0  0  0  0  0  0  0  0  0  0
   14.0187   -4.3480   -4.7450 C   0  0  0  0  0  3  0  0  0  0  0  0
   14.6582   -3.1244   -4.6663 O   0  0  0  0  0  0  0  0  0  0  0  0
   16.0492   -3.3546   -4.6454 C   0  0  2  0  0  0  0  0  0  0  0  0
   16.6628   -2.2489   -3.8497 C   0  0  0  0  0  0  0  0  0  0  0  0
   16.1494   -2.1847   -2.4407 C   0  0  0  0  0  3  0  0  0  0  0  0
   17.2492   -2.2809   -1.4197 C   0  0  0  0  0  3  0  0  0  0  0  0
   17.2561   -1.0774   -0.5154 C   0  0  0  0  0  3  0  0  0  0  0  0
   15.8783   -0.9055    0.0725 C   0  0  0  0  0  0  0  0  0  0  0  0
   15.2626   -2.1960    0.4980 C   0  0  2  0  0  0  0  0  0  0  0  0
   15.8438   -2.7807    1.7379 C   0  0  0  0  0  0  0  0  0  0  0  0
   15.1218   -3.0690   -0.5510 O   0  0  0  0  0  0  0  0  0  0  0  0
   14.1595   -3.9514   -0.3559 O   0  0  0  0  0  0  0  0  0  0  0  0
   14.6304   -5.1526   -0.9297 C   0  0  0  0  0  0  0  0  0  0  0  0
   16.1457   -5.1748   -0.6932 C   0  0  1  0  0  0  0  0  0  0  0  0
   16.3328   -5.8926    0.4890 O   0  0  0  0  0  0  0  0  0  0  0  0
   17.1339   -5.4596   -1.9011 S   0  0  2  0  0  0  0  0  0  0  0  0
   17.9525   -7.2254   -1.9497 O   0  0  0  0  0  0  0  0  0  0  0  0
   18.1349   -7.3771   -0.6639 O   0  0  0  0  0  0  0  0  0  0  0  0
   18.7347   -8.9344   -0.2650 S   0  0  0  0  0  0  0  0  0  0  0  0
   19.4285   -9.7155   -1.7702 C   0  0  0  0  0  2  0  0  0  0  0  0
   18.5932   -4.3805   -1.6507 C   0  0  0  0  0  3  0  0  0  0  0  0
   18.5340   -3.8501   -0.2452 C   0  0  0  0  0  3  0  0  0  0  0  0
   18.1996   -2.4902   -0.3275 O   0  0  0  0  0  0  0  0  0  0  0  0
   17.9444   -1.9911    0.8570 O   0  0  0  0  0  0  0  0  0  0  0  0
   17.3417   -2.9052    1.7046 C   0  0  0  0  0  3  0  0  0  0  0  0
   16.4748   -3.3381   -5.9451 O   0  0  0  0  0  0  0  0  0  0  0  0
   17.7058   -2.7868   -6.1506 C   0  0  2  0  0  0  0  0  0  0  0  0
   18.4388   -2.4513   -4.8971 C   0  0  0  0  0  3  0  0  0  0  0  0
   18.2919   -0.6411   -4.6592 S   0  0  0  0  0  0  0  0  0  0  0  0
   19.7727    0.1166   -5.0363 O   0  0  0  0  0  0  0  0  0  0  0  0
   19.5328    1.0120   -6.0775 C   0  0  0  0  0  0  0  0  0  0  0  0
   20.4835    2.2085   -5.9379 C   0  0  0  0  0  3  0  0  0  0  0  0
   19.7868    3.4464   -6.3912 C   0  0  1  0  0  0  0  0  0  0  0  0
   18.5132    3.0569   -6.8688 O   0  0  0  0  0  0  0  0  0  0  0  0
   19.8595    4.6832   -5.3480 S   0  0  0  0  0  0  0  0  0  0  0  0
   18.9778    5.8256   -5.3009 F   0  0  0  0  0  0  0  0  0  0  0  0
   21.3823    5.5511   -6.2711 F   0  0  0  0  0  0  0  0  0  0  0  0
   20.8696    4.3412   -3.9814 C   0  0  0  0  0  3  0  0  0  0  0  0
   20.2604    5.2473   -2.5714 S   0  0  0  0  0  0  0  0  0  0  0  0
   20.7429    6.9606   -2.4906 C   0  0  0  0  0  3  0  0  0  0  0  0
   19.6520    7.9583   -2.4391 C   0  0  2  0  0  0  0  0  0  0  0  0
   19.4030    8.7907   -0.8844 S   0  0  0  0  0  0  0  0  0  0  0  0
   20.6503    8.6156    0.2365 F   0  0  0  0  0  0  0  0  0  0  0  0
   18.3650    7.4766   -3.0729 C   0  0  0  0  0  0  0  0  0  0  0  0
   17.3507    7.3670   -2.1437 F   0  0  0  0  0  0  0  0  0  0  0  0
   17.8202   -1.7331   -7.1800 C   0  0  2  0  0  0  0  0  0  0  0  0
   16.5550   -1.1682   -7.7136 C   0  0  1  0  0  0  0  0  0  0  0  0
   15.9593   -1.9153   -8.7198 O   0  0  0  0  0  0  0  0  0  0  0  0
   15.6698   -0.8723   -6.6839 O   0  0  0  0  0  0  0  0  0  0  0  0
   15.9168    0.7093   -6.0658 S   0  0  0  0  0  0  0  0  0  0  0  0
   14.4677    1.7051   -6.5064 C   0  0  0  0  0  2  0  0  0  0  0  0
   19.1529   -1.9103   -8.3507 S   0  0  0  0  0  0  0  0  0  0  0  0
   20.7161   -2.1721   -7.5094 C   0  0  0  0  0  3  0  0  0  0  0  0
   21.3759   -3.7721   -7.9822 S   0  0  0  0  0  0  0  0  0  0  0  0
   20.7886   -5.0596   -7.0457 O   0  0  0  0  0  0  0  0  0  0  0  0
   19.0907   -5.2231   -7.1678 S   0  0  0  0  0  0  0  0  0  0  0  0
  1  2  1  0
  2  3  1  0
  3  4  1  0
  4  5  1  0
  5  6  1  1
  6  7  1  0
  7  8  1  0
  8  9  1  0
  9 10  1  0
 11 10  1  6
 11 12  1  0
 11 13  1  0
 13 14  1  0
 14 15  1  0
 15 16  1  0
 16 17  1  1
 16 18  1  0
 18 19  1  1
 19 20  1  0
 20 21  1  0
 21 22  1  0
 18 23  1  0
 23 24  1  0
 24 25  1  0
 25 26  1  0
 26 27  1  0
  5 28  1  0
 28 29  1  0
 29 30  1  1
 30 31  1  0
 31 32  1  0
 32 33  1  0
 33 34  1  0
 34 35  1  0
 35 36  1  1
 35 37  1  0
 37 38  1  0
 37 39  1  0
 37 40  1  0
 40 41  1  0
 41 42  1  0
 43 42  1  1
 43 44  1  0
 44 45  1  0
 43 46  1  0
 46 47  1  0
 29 48  1  0
 48 49  1  0
 49 50  1  6
 49 51  1  0
 51 52  1  0
 52 53  1  0
 48 54  1  6
 54 55  1  0
 55 56  1  0
 56 57  1  0
 57 58  1  0
 27 12  1  0
M  RAD  8   3   2   7   2   8   2   9   2  22   3  23   2  24   2  27   2
M  RAD  6  30   2  34   2  40   2  42   2  53   3  55   2
M  END
>  <docking_score>  (1) 
30.015000000000001

$$$$
