
     RDKit          3D

 23 24  0  0  0  0  0  0  0  0999 V2000
   20.7107   -5.5830   -6.5523 C   0  0  0  0  0  0  0  0  0  0  0  0
   19.4364   -6.3964   -6.7349 C   0  0  1  0  0  0  0  0  0  0  0  0
   19.8705   -7.8315   -6.9065 C   0  0  0  0  0  0  0  0  0  0  0  0
   18.7079   -8.7696   -7.1011 C   0  0  2  0  0  0  0  0  0  0  0  0
   18.5868   -9.3192   -8.3369 O   0  0  0  0  0  0  0  0  0  0  0  0
   17.4140   -8.1607   -6.5737 C   0  0  2  0  0  0  0  0  0  0  0  0
   17.0375   -7.1828   -7.5243 O   0  0  0  0  0  0  0  0  0  0  0  0
   17.7978   -7.5032   -5.2746 C   0  0  1  0  0  0  0  0  0  0  0  0
   18.7573   -8.2618   -4.5977 O   0  0  0  0  0  0  0  0  0  0  0  0
   18.4424   -6.1641   -5.6452 C   0  0  1  0  0  0  0  0  0  0  0  0
   19.0470   -5.5861   -4.4513 N   0  0  0  0  0  0  0  0  0  0  0  0
   18.0940   -4.6280   -3.9132 C   0  0  1  0  0  0  0  0  0  0  0  0
   18.3459   -4.4203   -2.4283 C   0  0  0  0  0  0  0  0  0  0  0  0
   17.1708   -3.7713   -1.7504 C   0  0  2  0  0  0  0  0  0  0  0  0
   16.1470   -4.6617   -1.4408 O   0  0  0  0  0  0  0  0  0  0  0  0
   16.6964   -2.5293   -2.4155 C   0  0  1  0  0  0  0  0  0  0  0  0
   17.4799   -1.4241   -2.2140 O   0  0  0  0  0  0  0  0  0  0  0  0
   16.1514   -2.6931   -3.7976 C   0  0  1  0  0  0  0  0  0  0  0  0
   15.1075   -1.7557   -4.0422 O   0  0  0  0  0  0  0  0  0  0  0  0
   17.2021   -2.4617   -4.8598 C   0  0  1  0  0  0  0  0  0  0  0  0
   17.5397   -1.1214   -5.0229 O   0  0  0  0  0  0  0  0  0  0  0  0
   18.4426   -3.2767   -4.5543 C   0  0  1  0  0  0  0  0  0  0  0  0
   19.3132   -2.5604   -3.7164 O   0  0  0  0  0  0  0  0  0  0  0  0
  2  1  1  1
  2  3  1  0
  3  4  1  0
  4  5  1  6
  4  6  1  0
  6  7  1  6
  6  8  1  0
  8  9  1  6
  8 10  1  0
 10 11  1  1
 12 11  1  6
 12 13  1  0
 13 14  1  0
 14 15  1  6
 14 16  1  0
 16 17  1  6
 16 18  1  0
 18 19  1  6
 18 20  1  0
 20 21  1  1
 20 22  1  0
 22 23  1  1
 10  2  1  0
 22 12  1  0
M  END
>  <docking_score>  (1) 
-4.5739999999999998

$$$$

     RDKit          3D

 23 24  0  0  0  0  0  0  0  0999 V2000
   19.3760   -5.0069   -2.6206 C   0  0  0  0  0  0  0  0  0  0  0  0
   19.3654   -3.4964   -2.4280 C   0  0  1  0  0  0  0  0  0  0  0  0
   20.7857   -3.1000   -2.1069 C   0  0  0  0  0  0  0  0  0  0  0  0
   20.9381   -1.6177   -1.8856 C   0  0  2  0  0  0  0  0  0  0  0  0
   21.2099   -1.2307   -0.6127 O   0  0  0  0  0  0  0  0  0  0  0  0
   19.7929   -0.8439   -2.5281 C   0  0  2  0  0  0  0  0  0  0  0  0
   18.6732   -1.0528   -1.6890 O   0  0  0  0  0  0  0  0  0  0  0  0
   19.5762   -1.5103   -3.8609 C   0  0  1  0  0  0  0  0  0  0  0  0
   20.7928   -1.9133   -4.4191 O   0  0  0  0  0  0  0  0  0  0  0  0
   18.7537   -2.7718   -3.5814 C   0  0  1  0  0  0  0  0  0  0  0  0
   18.7103   -3.5833   -4.7914 N   0  0  0  0  0  0  0  0  0  0  0  0
   17.3260   -3.6085   -5.2373 C   0  0  1  0  0  0  0  0  0  0  0  0
   17.0162   -2.3592   -6.0466 C   0  0  0  0  0  0  0  0  0  0  0  0
   15.5350   -2.1390   -6.1845 C   0  0  2  0  0  0  0  0  0  0  0  0
   14.9554   -1.5454   -5.0672 O   0  0  0  0  0  0  0  0  0  0  0  0
   14.7888   -3.3251   -6.6807 C   0  0  1  0  0  0  0  0  0  0  0  0
   14.9210   -3.5788   -8.0202 O   0  0  0  0  0  0  0  0  0  0  0  0
   14.7993   -4.5257   -5.7905 C   0  0  1  0  0  0  0  0  0  0  0  0
   13.5757   -5.2459   -5.9009 O   0  0  0  0  0  0  0  0  0  0  0  0
   15.9069   -5.4923   -6.1439 C   0  0  1  0  0  0  0  0  0  0  0  0
   15.6639   -6.2112   -7.3106 O   0  0  0  0  0  0  0  0  0  0  0  0
   17.2276   -4.7572   -6.2520 C   0  0  1  0  0  0  0  0  0  0  0  0
   17.4156   -4.2630   -7.5533 O   0  0  0  0  0  0  0  0  0  0  0  0
  2  1  1  6
  2  3  1  0
  3  4  1  0
  4  5  1  1
  4  6  1  0
  6  7  1  1
  6  8  1  0
  8  9  1  1
  8 10  1  0
 10 11  1  6
 12 11  1  6
 12 13  1  0
 13 14  1  0
 14 15  1  1
 14 16  1  0
 16 17  1  6
 16 18  1  0
 18 19  1  6
 18 20  1  0
 20 21  1  6
 20 22  1  0
 22 23  1  6
 10  2  1  0
 22 12  1  0
M  END
>  <docking_score>  (2) 
-4.4299999999999997

$$$$

     RDKit          3D

 23 24  0  0  0  0  0  0  0  0999 V2000
   17.0102   -6.6093   -7.2370 C   0  0  0  0  0  0  0  0  0  0  0  0
   16.1270   -5.4626   -6.7640 C   0  0  1  0  0  0  0  0  0  0  0  0
   14.8952   -6.0956   -6.1646 C   0  0  0  0  0  0  0  0  0  0  0  0
   13.9132   -5.0772   -5.6471 C   0  0  2  0  0  0  0  0  0  0  0  0
   12.7500   -4.9666   -6.3390 O   0  0  0  0  0  0  0  0  0  0  0  0
   14.5948   -3.7403   -5.3803 C   0  0  2  0  0  0  0  0  0  0  0  0
   14.8196   -3.1659   -6.6536 O   0  0  0  0  0  0  0  0  0  0  0  0
   15.9059   -4.0977   -4.7317 C   0  0  1  0  0  0  0  0  0  0  0  0
   15.7570   -5.1984   -3.8828 O   0  0  0  0  0  0  0  0  0  0  0  0
   16.8476   -4.5115   -5.8666 C   0  0  1  0  0  0  0  0  0  0  0  0
   18.0536   -5.0924   -5.2896 N   0  0  0  0  0  0  0  0  0  0  0  0
   18.5677   -4.1336   -4.3241 C   0  0  1  0  0  0  0  0  0  0  0  0
   19.0516   -4.8574   -3.0777 C   0  0  0  0  0  0  0  0  0  0  0  0
   19.2117   -3.9169   -1.9153 C   0  0  2  0  0  0  0  0  0  0  0  0
   18.0148   -3.6255   -1.2678 O   0  0  0  0  0  0  0  0  0  0  0  0
   20.0318   -2.7141   -2.2165 C   0  0  1  0  0  0  0  0  0  0  0  0
   21.3825   -2.9312   -2.2843 O   0  0  0  0  0  0  0  0  0  0  0  0
   19.4740   -1.7803   -3.2416 C   0  0  1  0  0  0  0  0  0  0  0  0
   19.8304   -0.4340   -2.9442 O   0  0  0  0  0  0  0  0  0  0  0  0
   19.9976   -2.0730   -4.6295 C   0  0  1  0  0  0  0  0  0  0  0  0
   21.3196   -1.6803   -4.8173 O   0  0  0  0  0  0  0  0  0  0  0  0
   19.8431   -3.5467   -4.9465 C   0  0  1  0  0  0  0  0  0  0  0  0
   20.9652   -4.2691   -4.5081 O   0  0  0  0  0  0  0  0  0  0  0  0
  2  1  1  1
  2  3  1  0
  3  4  1  0
  4  5  1  6
  4  6  1  0
  6  7  1  6
  6  8  1  0
  8  9  1  1
  8 10  1  0
 10 11  1  1
 12 11  1  6
 12 13  1  0
 13 14  1  0
 14 15  1  6
 14 16  1  0
 16 17  1  6
 16 18  1  0
 18 19  1  1
 18 20  1  0
 20 21  1  1
 20 22  1  0
 22 23  1  1
 10  2  1  0
 22 12  1  0
M  END
>  <docking_score>  (3) 
-4.1029999999999998

$$$$
