
     RDKit          3D

 45 44  0  0  0  0  0  0  0  0999 V2000
    6.6551    9.2821    8.3575 C   0  0  0  0  0  0  0  0  0  0  0  0
    5.2467    8.8060    8.5565 C   0  0  0  0  0  0  0  0  0  0  0  0
    4.5479    9.0550    9.8603 C   0  0  0  0  0  0  0  0  0  0  0  0
    3.0491    9.0664    9.9177 C   0  0  0  0  0  0  0  0  0  0  0  0
    5.3481    9.2927   11.1066 C   0  0  0  0  0  0  0  0  0  0  0  0
    4.9414    8.6403   12.3947 O   0  0  0  0  0  0  0  0  0  0  0  0
    6.5548   10.1825   11.0648 O   0  0  0  0  0  0  0  0  0  0  0  0
    6.5536   11.4835   11.8114 C   0  0  0  0  0  3  0  0  0  0  0  0
    6.0311   11.5415   13.2163 C   0  0  0  0  0  0  0  0  0  0  0  0
    4.6730   12.1173   13.4883 C   0  0  0  0  0  0  0  0  0  0  0  0
    4.2400   12.3830   14.8997 O   0  0  0  0  0  0  0  0  0  0  0  0
    3.7480   12.4275   12.3490 C   0  0  0  0  0  0  0  0  0  0  0  0
    3.2994   11.3321   11.4276 C   0  0  0  0  0  0  0  0  0  0  0  0
    2.3744   11.6423   10.2883 C   0  0  0  0  0  0  0  0  0  0  0  0
    2.6512   12.8154    9.3954 C   0  0  0  0  0  3  0  0  0  0  0  0
    2.5197   12.6733    7.9079 C   0  0  0  0  0  0  0  0  0  0  0  0
    3.7031   12.9297    7.0225 C   0  0  0  0  0  0  0  0  0  0  0  0
    4.6093   11.7987    6.6354 O   0  0  0  0  0  0  0  0  0  0  0  0
    5.0287   11.6296    5.2052 C   0  0  0  0  0  0  0  0  0  0  0  0
    6.2337   10.8016    4.8699 C   0  0  0  0  0  3  0  0  0  0  0  0
    6.6907    9.7268    5.8112 C   0  0  0  0  0  3  0  0  0  0  0  0
    6.3473    8.2929    5.5359 O   0  0  0  0  0  0  0  0  0  0  0  0
    5.0819    7.7055    6.0870 O   0  0  0  0  0  0  0  0  0  0  0  0
    3.9016    7.4886    5.1870 C   0  0  0  0  0  0  0  0  0  0  0  0
    2.7536    6.6398    5.6470 O   0  0  0  0  0  0  0  0  0  0  0  0
    3.8693    8.1206    3.8271 O   0  0  0  0  0  0  0  0  0  0  0  0
    3.2044    9.4514    3.6340 C   0  0  0  0  0  3  0  0  0  0  0  0
    2.8346    9.9120    2.2552 O   0  0  0  0  0  0  0  0  0  0  0  0
    3.9803   14.3171    6.5242 O   0  0  0  0  0  0  0  0  0  0  0  0
    5.3612   14.6899    6.0726 C   0  0  0  0  0  3  0  0  0  0  0  0
    5.9492   14.0492    4.8504 C   0  0  0  0  0  0  0  0  0  0  0  0
    7.4273   13.8077    4.7676 C   0  0  0  0  0  0  0  0  0  0  0  0
    8.0152   13.1669    3.5453 C   0  0  0  0  0  3  0  0  0  0  0  0
    9.5000   12.9845    3.4347 C   0  0  0  0  0  0  0  0  0  0  0  0
   10.3979   14.1824    3.3416 C   0  0  0  0  0  0  0  0  0  0  0  0
   11.7715   14.1386    3.9427 C   0  0  0  0  0  1  0  0  0  0  0  0
    9.9223   15.4242    2.6474 C   0  0  0  0  0  0  0  0  0  0  0  0
    8.5400   15.9457    2.9067 C   0  0  0  0  0  0  0  0  0  0  0  0
    7.7256   15.3837    4.0341 O   0  0  0  0  0  0  0  0  0  0  0  0
    7.1184   12.7087    2.4337 C   0  0  0  0  0  0  0  0  0  0  0  0
    7.6850   11.9228    1.2886 C   0  0  0  0  0  0  0  0  0  0  0  0
    8.2469   12.6361    0.0947 C   0  0  0  0  0  0  0  0  0  0  0  0
    7.6895   10.4235    1.3373 O   0  0  0  0  0  0  0  0  0  0  0  0
    6.4154    9.6622    1.1204 C   0  0  0  0  0  0  0  0  0  0  0  0
    5.3270    9.7123    2.1514 O   0  0  0  0  0  0  0  0  0  0  0  0
  1  2  1  0
  2  3  1  0
  3  4  1  0
  3  5  1  0
  5  6  2  0
  5  7  1  0
  7  8  1  0
  8  9  1  0
  9 10  1  0
 10 11  1  0
 10 12  1  0
 12 13  2  3
 13 14  1  0
 14 15  1  0
 15 16  1  0
 17 16  1  0
 17 18  1  0
 18 19  1  0
 19 20  1  0
 20 21  1  0
 21 22  1  0
 22 23  1  0
 23 24  1  0
 24 25  1  0
 24 26  1  0
 26 27  1  0
 27 28  1  0
 17 29  1  0
 29 30  1  0
 30 31  1  0
 31 32  2  3
 32 33  1  0
 33 34  1  0
 34 35  1  0
 35 36  1  0
 35 37  1  0
 37 38  1  0
 38 39  2  0
 33 40  1  0
 40 41  1  0
 41 42  1  0
 41 43  1  0
 43 44  1  0
 44 45  2  0
M  RAD  8   8   2  15   2  20   2  21   2  27   2  30   2  33   2  36   2
M  END
>  <docking_score>  (1) 
6.202

$$$$
