
     RDKit          3D

 46 47  0  0  0  0  0  0  0  0999 V2000
   16.0393   -5.9005   -3.4402 C   0  0  0  0  0  0  0  0  0  0  0  0
   16.8801   -6.8871   -4.1714 C   0  0  0  0  0  0  0  0  0  0  0  0
   16.4535   -8.2780   -3.7678 C   0  0  2  0  0  0  0  0  0  0  0  0
   17.7001   -9.0934   -3.5525 C   0  0  0  0  0  0  0  0  0  0  0  0
   15.5320   -8.9039   -4.7317 C   0  0  0  0  0  0  0  0  0  0  0  0
   14.4079   -9.2934   -4.3519 O   0  0  0  0  0  0  0  0  0  0  0  0
   15.8921   -9.0673   -6.0516 O   0  0  0  0  0  0  0  0  0  0  0  0
   16.6752   -8.1668   -6.7911 C   0  0  0  0  0  3  0  0  0  0  0  0
   18.0412   -8.7478   -7.1461 C   0  0  0  0  0  0  0  0  0  0  0  0
   19.0780   -7.7944   -6.6239 C   0  0  1  0  0  0  0  0  0  0  0  0
   19.9687   -8.4322   -5.7943 O   0  0  0  0  0  0  0  0  0  0  0  0
   19.7742   -7.1280   -7.7439 C   0  0  0  0  0  0  0  0  0  0  0  0
   20.3642   -5.9649   -7.6020 C   0  0  0  0  0  0  0  0  0  0  0  0
   21.0393   -5.3465   -8.7385 C   0  0  0  0  0  0  0  0  0  0  0  0
   21.3816   -4.0613   -8.7393 C   0  0  0  0  0  0  0  0  0  0  0  0
   21.0776   -3.1967   -7.5503 C   0  0  0  0  0  0  0  0  0  0  0  0
   19.7531   -2.5171   -7.7378 C   0  0  2  0  0  0  0  0  0  0  0  0
   19.7163   -1.3094   -6.8242 C   0  0  0  0  0  0  0  0  0  0  0  0
   20.2768   -1.6312   -5.4550 C   0  0  0  0  0  0  0  0  0  0  0  0
   19.8066   -0.6665   -4.4070 C   0  0  0  0  0  3  0  0  0  0  0  0
   18.8924    0.3968   -4.9569 C   0  0  0  0  0  0  0  0  0  0  0  0
   17.4945   -0.1198   -5.2040 C   0  0  1  0  0  0  0  0  0  0  0  0
   17.1815   -0.1320   -6.5601 O   0  0  0  0  0  0  0  0  0  0  0  0
   17.2796   -1.4859   -4.5929 C   0  0  0  0  0  0  0  0  0  0  0  0
   17.1811   -2.4798   -5.6830 C   0  0  0  0  0  0  0  0  0  0  0  0
   16.1587   -2.5502   -6.3213 O   0  0  0  0  0  0  0  0  0  0  0  0
   18.6399   -3.4964   -7.4259 C   0  0  0  0  0  0  0  0  0  0  0  0
   18.3065   -3.3525   -5.9704 C   0  0  2  0  0  0  0  0  0  0  0  0
   18.0984   -4.6795   -5.2807 C   0  0  0  0  0  0  0  0  0  0  0  0
   18.0349   -4.4216   -3.8136 C   0  0  2  0  0  0  0  0  0  0  0  0
   19.0897   -5.1750   -3.0353 C   0  0  0  0  0  0  0  0  0  0  0  0
   16.6672   -4.5715   -3.2209 C   0  0  2  0  0  0  0  0  0  0  0  0
   16.7475   -4.1670   -1.7648 C   0  0  2  0  0  0  0  0  0  0  0  0
   16.2983   -5.3392   -0.9280 C   0  0  0  0  0  0  0  0  0  0  0  0
   15.9089   -2.9428   -1.5716 C   0  0  0  0  0  0  0  0  0  0  0  0
   16.6326   -1.8143   -1.9073 O   0  0  0  0  0  0  0  0  0  0  0  0
   15.7367   -0.7294   -1.9407 C   0  0  2  0  0  0  0  0  0  0  0  0
   15.0931   -0.6724   -0.5709 C   0  0  0  0  0  2  0  0  0  0  0  0
   14.6841   -1.0296   -2.9920 C   0  0  0  0  0  0  0  0  0  0  0  0
   14.0259    0.2568   -3.4110 C   0  0  0  0  0  0  0  0  0  0  0  0
   13.8201    0.3472   -4.8969 C   0  0  0  0  0  0  0  0  0  0  0  0
   13.0854   -0.8700   -5.3874 C   0  0  0  0  0  0  0  0  0  0  0  0
   14.0420   -1.9371   -5.8570 C   0  0  2  0  0  0  0  0  0  0  0  0
   14.3836   -1.7434   -7.3003 C   0  0  0  0  0  0  0  0  0  0  0  0
   13.4966   -3.3046   -5.6181 C   0  0  0  0  0  0  0  0  0  0  0  0
   12.4364   -3.4966   -5.0478 O   0  0  0  0  0  0  0  0  0  0  0  0
  1  2  1  0
  2  3  1  0
  3  4  1  6
  3  5  1  0
  5  6  2  0
  5  7  1  0
  7  8  1  0
  8  9  1  0
  9 10  1  0
 10 11  1  6
 10 12  1  0
 12 13  2  3
 13 14  1  0
 14 15  2  3
 15 16  1  0
 17 16  1  1
 17 18  1  0
 18 19  1  0
 19 20  1  0
 20 21  1  0
 21 22  1  0
 22 23  1  6
 22 24  1  0
 24 25  1  0
 25 26  2  0
 17 27  1  0
 27 28  1  0
 28 29  1  6
 29 30  1  0
 30 31  1  1
 30 32  1  0
 32 33  1  0
 33 34  1  1
 33 35  1  0
 35 36  1  0
 36 37  1  0
 37 38  1  1
 37 39  1  0
 39 40  1  0
 40 41  1  0
 41 42  1  0
 42 43  1  0
 43 44  1  6
 43 45  1  0
 45 46  2  0
 32  1  1  1
 28 25  1  0
M  RAD  3   8   2  20   2  38   3
M  END
>  <docking_score>  (1) 
7.3650000000000002

$$$$

     RDKit          3D

 46 47  0  0  0  0  0  0  0  0999 V2000
   17.9332   -4.8415   -5.1717 C   0  0  0  0  0  0  0  0  0  0  0  0
   19.1124   -3.9399   -5.2789 C   0  0  0  0  0  0  0  0  0  0  0  0
   20.3642   -4.7834   -5.3047 C   0  0  2  0  0  0  0  0  0  0  0  0
   21.3782   -4.1231   -4.4097 C   0  0  0  0  0  0  0  0  0  0  0  0
   20.8803   -5.0128   -6.6653 C   0  0  0  0  0  0  0  0  0  0  0  0
   21.0234   -6.1799   -7.0857 O   0  0  0  0  0  0  0  0  0  0  0  0
   21.2092   -3.9553   -7.4851 O   0  0  0  0  0  0  0  0  0  0  0  0
   20.5300   -2.7275   -7.5289 C   0  0  0  0  0  3  0  0  0  0  0  0
   21.3805   -1.5788   -6.9935 C   0  0  0  0  0  0  0  0  0  0  0  0
   20.5992   -0.9257   -5.8892 C   0  0  1  0  0  0  0  0  0  0  0  0
   21.3256   -0.8815   -4.7235 O   0  0  0  0  0  0  0  0  0  0  0  0
   20.1625    0.4253   -6.2980 C   0  0  0  0  0  0  0  0  0  0  0  0
   19.1220    1.0129   -5.7565 C   0  0  0  0  0  0  0  0  0  0  0  0
   18.7296    2.3487   -6.1939 C   0  0  0  0  0  0  0  0  0  0  0  0
   17.5344    2.8590   -5.9107 C   0  0  0  0  0  0  0  0  0  0  0  0
   16.5393    2.0608   -5.1195 C   0  0  0  0  0  0  0  0  0  0  0  0
   15.6416    1.2977   -6.0486 C   0  0  2  0  0  0  0  0  0  0  0  0
   14.3813    0.9395   -5.2884 C   0  0  0  0  0  0  0  0  0  0  0  0
   14.6951    0.4601   -3.8869 C   0  0  0  0  0  0  0  0  0  0  0  0
   13.5818   -0.3586   -3.3035 C   0  0  0  0  0  3  0  0  0  0  0  0
   12.4127   -0.5109   -4.2408 C   0  0  0  0  0  0  0  0  0  0  0  0
   12.6777   -1.5248   -5.3290 C   0  0  1  0  0  0  0  0  0  0  0  0
   12.7361   -0.9292   -6.5855 O   0  0  0  0  0  0  0  0  0  0  0  0
   13.9287   -2.3300   -5.0598 C   0  0  0  0  0  0  0  0  0  0  0  0
   14.9681   -1.9249   -6.0301 C   0  0  0  0  0  0  0  0  0  0  0  0
   14.8961   -2.3246   -7.1671 O   0  0  0  0  0  0  0  0  0  0  0  0
   16.3698    0.0665   -6.5485 C   0  0  0  0  0  0  0  0  0  0  0  0
   16.0544   -1.0580   -5.6069 C   0  0  2  0  0  0  0  0  0  0  0  0
   17.2623   -1.8990   -5.2698 C   0  0  0  0  0  0  0  0  0  0  0  0
   16.8846   -2.8027   -4.1457 C   0  0  2  0  0  0  0  0  0  0  0  0
   17.7586   -2.6241   -2.9250 C   0  0  0  0  0  0  0  0  0  0  0  0
   16.7312   -4.2407   -4.5370 C   0  0  2  0  0  0  0  0  0  0  0  0
   16.2376   -4.9996   -3.3242 C   0  0  2  0  0  0  0  0  0  0  0  0
   16.8630   -4.3812   -2.0986 C   0  0  0  0  0  0  0  0  0  0  0  0
   16.5832   -6.4446   -3.5030 C   0  0  0  0  0  0  0  0  0  0  0  0
   15.8178   -6.9937   -4.5142 O   0  0  0  0  0  0  0  0  0  0  0  0
   16.3418   -8.2685   -4.7992 C   0  0  2  0  0  0  0  0  0  0  0  0
   17.2728   -8.0868   -5.9800 C   0  0  0  0  0  2  0  0  0  0  0  0
   15.1843   -9.1688   -5.1901 C   0  0  0  0  0  0  0  0  0  0  0  0
   15.7148  -10.5376   -5.5196 C   0  0  0  0  0  0  0  0  0  0  0  0
   17.1797  -10.5280   -5.8548 C   0  0  0  0  0  0  0  0  0  0  0  0
   17.5712  -11.8394   -6.4785 C   0  0  0  0  0  0  0  0  0  0  0  0
   17.3071  -11.8422   -7.9632 C   0  0  2  0  0  0  0  0  0  0  0  0
   16.1352  -12.7123   -8.2905 C   0  0  0  0  0  0  0  0  0  0  0  0
   18.5135  -12.2629   -8.7329 C   0  0  0  0  0  0  0  0  0  0  0  0
   19.1559  -13.2597   -8.4504 O   0  0  0  0  0  0  0  0  0  0  0  0
  1  2  1  0
  2  3  1  0
  3  4  1  1
  3  5  1  0
  5  6  2  0
  5  7  1  0
  7  8  1  0
  8  9  1  0
  9 10  1  0
 10 11  1  1
 10 12  1  0
 12 13  2  3
 13 14  1  0
 14 15  2  3
 15 16  1  0
 17 16  1  1
 17 18  1  0
 18 19  1  0
 19 20  1  0
 20 21  1  0
 21 22  1  0
 22 23  1  6
 22 24  1  0
 24 25  1  0
 25 26  2  0
 17 27  1  0
 27 28  1  0
 28 29  1  6
 29 30  1  0
 30 31  1  1
 30 32  1  0
 32 33  1  0
 33 34  1  1
 33 35  1  0
 35 36  1  0
 36 37  1  0
 37 38  1  6
 37 39  1  0
 39 40  1  0
 40 41  1  0
 41 42  1  0
 42 43  1  0
 43 44  1  1
 43 45  1  0
 45 46  2  0
 32  1  1  1
 28 25  1  0
M  RAD  3   8   2  20   2  38   3
M  END
>  <docking_score>  (2) 
8.8680000000000003

$$$$
