
     RDKit          3D

 37 39  0  0  0  0  0  0  0  0999 V2000
    6.4156   13.7313   12.7886 C   0  0  2  0  0  0  0  0  0  0  0  0
    5.3393   12.6828   12.9490 C   0  0  0  0  0  0  0  0  0  0  0  0
    4.2944   13.2144   13.8974 C   0  0  0  0  0  0  0  0  0  0  0  0
    5.9946   11.4855   13.6201 C   0  0  0  0  0  0  0  0  0  0  0  0
    4.7675   12.2145   11.6497 C   0  0  0  0  0  0  0  0  0  0  0  0
    4.1471   10.8444   11.9171 C   0  0  0  0  0  0  0  0  0  0  0  0
    3.1967   10.4371   10.8378 C   0  0  0  0  0  0  0  0  0  0  0  0
    3.0415    8.9316   10.7961 C   0  0  2  0  0  0  0  0  0  0  0  0
    3.0066    8.3287   12.1786 C   0  0  0  0  0  0  0  0  0  0  0  0
    4.1037    8.2820    9.9284 C   0  0  0  0  0  0  0  0  0  0  0  0
    3.9922    8.9140    8.5565 C   0  0  2  0  0  0  0  0  0  0  0  0
    4.4630   10.3610    8.6875 C   0  0  0  0  0  0  0  0  0  0  0  0
    2.5514    8.9671    8.0890 C   0  0  0  0  0  0  0  0  0  0  0  0
    2.4218    8.2788    6.7262 C   0  0  2  0  0  0  0  0  0  0  0  0
    2.7703    6.9505    6.8235 O   0  0  0  0  0  0  0  0  0  0  0  0
    3.3173    9.0222    5.7477 C   0  0  0  0  0  0  0  0  0  0  0  0
    2.6640   10.3321    5.3427 C   0  0  2  0  0  0  0  0  0  0  0  0
    2.2768   10.2559    3.8982 C   0  0  0  0  0  0  0  0  0  0  0  0
    3.5620   11.5173    5.6125 C   0  0  0  0  0  0  0  0  0  0  0  0
    4.2914   11.9919    4.3913 C   0  0  0  0  0  0  0  0  0  0  0  0
    4.1623   13.4666    4.1454 C   0  0  0  0  0  0  0  0  0  0  0  0
    3.9762   14.2768    5.3872 C   0  0  1  0  0  0  0  0  0  0  0  0
    2.9717   13.7087    6.3379 C   0  0  0  0  0  0  0  0  0  0  0  0
    5.2833   14.6446    6.0491 C   0  0  0  0  0  0  0  0  0  0  0  0
    5.2404   16.0741    6.6008 C   0  0  0  0  0  0  0  0  0  0  0  0
    5.8635   16.0271    7.9778 C   0  0  0  0  0  0  0  0  0  0  0  0
    4.8789   15.5720    9.0323 C   0  0  0  0  0  0  0  0  0  0  0  0
    5.4875   14.7569    9.9627 O   0  0  0  0  0  0  0  0  0  0  0  0
    4.8731   14.8965   11.2027 C   0  0  2  0  0  0  0  0  0  0  0  0
    4.1304   16.0738   11.1749 O   0  0  0  0  0  0  0  0  0  0  0  0
    5.8909   15.0358   12.3058 C   0  0  2  0  0  0  0  0  0  0  0  0
    7.1074   15.7107   11.7213 C   0  0  0  0  0  0  0  0  0  0  0  0
    7.7938   14.5261   11.0160 C   0  0  0  0  0  0  0  0  0  0  0  0
    7.5845   13.3740   11.9909 C   0  0  2  0  0  0  0  0  0  0  0  0
    7.5649   12.0132   11.3198 C   0  0  0  0  0  0  0  0  0  0  0  0
    8.3334   13.4570   13.2250 C   0  0  0  0  0  0  0  0  0  0  0  0
    7.2975   13.7750   13.9322 C   0  0  0  0  0  0  0  0  0  0  0  0
  1  2  1  1
  2  3  1  0
  2  4  1  0
  2  5  1  0
  5  6  1  0
  6  7  1  0
  7  8  1  0
  8  9  1  1
  8 10  1  0
 10 11  1  0
 11 12  1  1
 11 13  1  0
 13 14  1  0
 14 15  1  1
 14 16  1  0
 16 17  1  0
 17 18  1  6
 17 19  1  0
 19 20  1  0
 20 21  1  0
 21 22  1  0
 22 23  1  1
 22 24  1  0
 24 25  1  0
 25 26  1  0
 26 27  1  0
 27 28  1  0
 28 29  1  0
 29 30  1  6
 29 31  1  0
 31 32  1  6
 32 33  1  0
 33 34  1  0
 34 35  1  6
 34 36  1  0
 36 37  2  0
 31  1  1  0
 34  1  1  0
 37  1  1  0
M  END
>  <docking_score>  (1) 
-3.7170000000000001

$$$$
