
     RDKit          3D

 60 61  0  0  0  0  0  0  0  0999 V2000
   17.7445    0.1677   -3.1366 C   0  0  0  0  0  0  0  0  0  0  0  0
   17.1169    0.3283   -4.4895 O   0  0  0  0  0  0  0  0  0  0  0  0
   16.1994   -0.7324   -5.0214 C   0  0  0  0  0  3  0  0  0  0  0  0
   14.7515   -0.7374   -4.6291 O   0  0  0  0  0  0  0  0  0  0  0  0
   13.9480   -1.9988   -4.7430 C   0  0  0  0  0  0  0  0  0  0  0  0
   12.5826   -1.3967   -4.5909 C   0  0  0  0  0  0  0  0  0  0  0  0
   11.0991   -1.2024   -4.4835 C   0  0  0  0  0  3  0  0  0  0  0  0
    9.6178   -1.4316   -4.4296 C   0  0  0  0  0  3  0  0  0  0  0  0
    8.2584   -2.0659   -4.4335 C   0  0  0  0  0  0  0  0  0  0  0  0
    7.4425   -0.8236   -4.2315 C   0  0  0  0  0  0  0  0  0  0  0  0
    7.6244    0.3503   -5.1475 C   0  0  0  0  0  0  0  0  0  0  0  0
    8.7683    0.3745   -6.1175 C   0  0  0  0  0  0  0  0  0  0  0  0
    6.6624    1.4998   -5.0934 C   0  0  0  0  0  0  0  0  0  0  0  0
    5.4393    1.4144   -4.2292 O   0  0  0  0  0  0  0  0  0  0  0  0
    6.9235    2.7350   -5.9035 C   0  0  0  0  0  0  0  0  0  0  0  0
    6.5149    2.7861   -7.3458 O   0  0  0  0  0  0  0  0  0  0  0  0
    7.5931    3.9190   -5.2712 C   0  0  0  0  0  0  0  0  0  0  0  0
    8.8490    4.4789   -5.8705 I   0  0  0  0  0  0  0  0  0  0  0  0
    7.0068    4.5431   -4.0396 O   0  0  0  0  0  0  0  0  0  0  0  0
    5.6570    5.1948   -4.0989 C   0  0  0  0  0  3  0  0  0  0  0  0
    5.5087    6.6458   -3.7490 C   0  0  0  0  0  3  0  0  0  0  0  0
    5.9926    7.1505   -2.4219 O   0  0  0  0  0  0  0  0  0  0  0  0
    5.8650    8.6057   -2.0812 C   0  0  0  0  0  0  0  0  0  0  0  0
    6.2077    9.6483   -3.1038 O   0  0  0  0  0  0  0  0  0  0  0  0
    5.3947    9.0183   -0.7179 C   0  0  0  0  0  0  0  0  0  0  0  0
    6.3925    9.3770    0.3430 C   0  0  0  0  0  3  0  0  0  0  0  0
    6.5681    8.4884    1.5387 C   0  0  0  0  0  2  0  0  0  0  0  0
    6.3029    7.0164    1.4246 C   0  0  0  0  0  2  0  0  0  0  0  0
    3.9265    9.0723   -0.4156 C   0  0  0  0  0  3  0  0  0  0  0  0
    3.4165    8.5989    0.9132 C   0  0  0  0  0  0  0  0  0  0  0  0
    4.0649    7.4287    1.5918 C   0  0  0  0  0  0  0  0  0  0  0  0
    5.1448    7.6551    2.6080 C   0  0  0  0  0  3  0  0  0  0  0  0
    4.8552    7.4583    4.0665 C   0  0  0  0  0  3  0  0  0  0  0  0
    4.5713    6.0838    4.5960 O   0  0  0  0  0  0  0  0  0  0  0  0
    2.2581    9.2956    1.5635 C   0  0  0  0  0  0  0  0  0  0  0  0
    2.2645   10.7889    1.7050 O   0  0  0  0  0  0  0  0  0  0  0  0
    2.6255   11.4162    3.0188 C   0  0  0  0  0  0  0  0  0  0  0  0
    2.4132   10.6579    4.2955 C   0  0  0  0  0  2  0  0  0  0  0  0
    3.1987   12.8018    3.0560 C   0  0  0  0  0  0  0  0  0  0  0  0
    2.5298   13.8687    3.8711 C   0  0  0  0  0  2  0  0  0  0  0  0
   15.0847   -2.9600   -4.9276 O   0  0  0  0  0  0  0  0  0  0  0  0
   15.9005   -4.2024   -5.1296 C   0  0  0  0  0  3  0  0  0  0  0  0
   16.3295   -5.6253   -5.3327 O   0  0  0  0  0  0  0  0  0  0  0  0
   16.3369   -7.1135   -5.5205 C   0  0  0  0  0  0  0  0  0  0  0  0
   17.8204   -7.3078   -5.6279 C   0  0  0  0  0  2  0  0  0  0  0  0
   15.9220   -8.5463   -5.6778 O   0  0  0  0  0  0  0  0  0  0  0  0
   15.1185   -9.8078   -5.7917 C   0  0  0  0  0  0  0  0  0  0  0  0
   13.9914  -10.7957   -5.8531 N   0  0  0  0  0  0  0  0  0  0  0  0
   12.6321  -11.4301   -5.8570 C   0  0  0  0  0  3  0  0  0  0  0  0
   11.1507  -11.6593   -5.8031 O   0  0  0  0  0  0  0  0  0  0  0  0
    9.6672  -11.4650   -5.6958 C   0  0  0  0  0  3  0  0  0  0  0  0
    8.3018  -10.8629   -5.5436 C   0  0  0  0  0  3  0  0  0  0  0  0
    7.1652   -9.9017   -5.3591 N   0  0  0  0  0  0  0  0  0  0  0  0
    6.3493   -8.6593   -5.1571 C   0  0  0  0  0  3  0  0  0  0  0  0
    5.9203   -7.2364   -4.9539 C   0  0  0  0  0  3  0  0  0  0  0  0
    5.9130   -5.7482   -4.7661 C   0  0  0  0  0  3  0  0  0  0  0  0
    6.3278   -4.3154   -4.6089 C   0  0  0  0  0  3  0  0  0  0  0  0
    7.1314   -3.0538   -4.4949 O   0  0  0  0  0  0  0  0  0  0  0  0
   16.1048  -10.9210   -5.9870 C   0  0  0  0  0  0  0  0  0  0  0  0
   14.9777  -11.9089   -6.0484 O   0  0  0  0  0  0  0  0  0  0  0  0
  1  2  1  0
  2  3  1  0
  3  4  1  0
  5  4  1  0
  5  6  1  0
  6  7  1  0
  7  8  1  0
  8  9  1  0
  9 10  1  0
 10 11  1  0
 11 12  1  0
 11 13  1  0
 13 14  1  0
 13 15  1  0
 15 16  1  0
 15 17  1  0
 17 18  1  0
 17 19  1  0
 19 20  1  0
 20 21  1  0
 21 22  1  0
 22 23  1  0
 23 24  1  0
 23 25  1  0
 25 26  1  0
 26 27  1  0
 27 28  1  0
 25 29  1  0
 30 29  1  0
 30 31  1  0
 31 32  1  0
 32 33  1  0
 33 34  1  0
 30 35  1  0
 35 36  1  0
 36 37  1  0
 37 38  1  0
 37 39  1  0
 39 40  1  0
  5 41  1  0
 41 42  1  0
 42 43  1  0
 43 44  1  0
 44 45  1  0
 44 46  1  0
 46 47  1  0
 47 48  1  0
 48 49  1  0
 49 50  1  0
 50 51  1  0
 51 52  1  0
 52 53  1  0
 53 54  1  0
 54 55  1  0
 55 56  1  0
 56 57  1  0
 57 58  1  0
 47 59  1  0
 59 60  1  0
 58  9  1  0
 60 48  1  0
M  RAD  8   3   2   7   2   8   2  20   2  21   2  26   2  27   3  28   3
M  RAD  8  29   2  32   2  33   2  38   3  40   3  42   2  45   3  49   2
M  RAD  6  51   2  52   2  54   2  55   2  56   2  57   2
M  END
>  <docking_score>  (1) 
85.567999999999998

$$$$

     RDKit          3D

 60 61  0  0  0  0  0  0  0  0999 V2000
   11.3187   -5.3778   -8.0540 C   0  0  0  0  0  0  0  0  0  0  0  0
   10.1210   -4.8294   -7.3366 O   0  0  0  0  0  0  0  0  0  0  0  0
   10.2945   -3.7725   -6.2866 C   0  0  0  0  0  3  0  0  0  0  0  0
   11.5206   -3.7677   -5.4225 O   0  0  0  0  0  0  0  0  0  0  0  0
   11.7823   -4.9095   -4.4855 C   0  0  0  0  0  0  0  0  0  0  0  0
   13.2782   -4.8094   -4.4395 C   0  0  0  0  0  0  0  0  0  0  0  0
   14.7275   -5.0424   -4.1305 C   0  0  0  0  0  3  0  0  0  0  0  0
   16.0125   -5.5895   -3.5836 C   0  0  0  0  0  3  0  0  0  0  0  0
   17.0295   -6.4067   -2.8430 C   0  0  0  0  0  0  0  0  0  0  0  0
   18.2613   -5.6910   -3.3125 C   0  0  0  0  0  0  0  0  0  0  0  0
   18.2737   -4.1932   -3.3929 C   0  0  0  0  0  0  0  0  0  0  0  0
   17.8749   -3.3749   -2.2006 C   0  0  0  0  0  0  0  0  0  0  0  0
   18.6850   -3.5139   -4.6653 C   0  0  0  0  0  0  0  0  0  0  0  0
   18.4689   -2.0389   -4.8318 O   0  0  0  0  0  0  0  0  0  0  0  0
   19.3123   -4.3095   -5.7714 C   0  0  0  0  0  0  0  0  0  0  0  0
   18.6459   -4.3836   -7.1131 O   0  0  0  0  0  0  0  0  0  0  0  0
   20.6061   -5.0311   -5.5357 C   0  0  0  0  0  0  0  0  0  0  0  0
   21.2307   -5.8310   -6.6402 I   0  0  0  0  0  0  0  0  0  0  0  0
   21.2753   -4.9527   -4.1955 O   0  0  0  0  0  0  0  0  0  0  0  0
   21.2535   -3.6687   -3.4203 C   0  0  0  0  0  3  0  0  0  0  0  0
   21.0448   -2.3656   -4.1332 C   0  0  0  0  0  3  0  0  0  0  0  0
   19.7843   -1.5832   -3.9121 O   0  0  0  0  0  0  0  0  0  0  0  0
   19.6254   -0.2265   -4.5317 C   0  0  0  0  0  0  0  0  0  0  0  0
   20.2385    0.9746   -3.8748 O   0  0  0  0  0  0  0  0  0  0  0  0
   18.8533   -0.0707   -5.8083 C   0  0  0  0  0  0  0  0  0  0  0  0
   18.3347   -1.2828   -6.5238 C   0  0  0  0  0  3  0  0  0  0  0  0
   18.3657   -1.3396   -8.0224 C   0  0  0  0  0  2  0  0  0  0  0  0
   17.8250   -2.5415   -8.7388 C   0  0  0  0  0  2  0  0  0  0  0  0
   18.5998    1.2971   -6.3694 C   0  0  0  0  0  3  0  0  0  0  0  0
   19.0190    2.5135   -5.5983 C   0  0  0  0  0  0  0  0  0  0  0  0
   17.9879    3.3553   -4.9068 C   0  0  0  0  0  0  0  0  0  0  0  0
   16.7396    3.7598   -5.6337 C   0  0  0  0  0  3  0  0  0  0  0  0
   16.6998    3.7242   -7.1327 C   0  0  0  0  0  3  0  0  0  0  0  0
   17.4448    4.7555   -7.9275 O   0  0  0  0  0  0  0  0  0  0  0  0
   20.4693    2.8882   -5.5188 C   0  0  0  0  0  0  0  0  0  0  0  0
   20.8630    4.2926   -5.1690 O   0  0  0  0  0  0  0  0  0  0  0  0
   20.0256    5.0904   -4.2138 C   0  0  0  0  0  0  0  0  0  0  0  0
   20.0434    4.7661   -2.7494 C   0  0  0  0  0  2  0  0  0  0  0  0
   19.1704    6.2126   -4.7231 C   0  0  0  0  0  0  0  0  0  0  0  0
   19.6002    6.9961   -5.9278 C   0  0  0  0  0  2  0  0  0  0  0  0
   10.3608   -5.3346   -4.2649 O   0  0  0  0  0  0  0  0  0  0  0  0
    9.1290   -6.0502   -3.7954 C   0  0  0  0  0  3  0  0  0  0  0  0
    8.1866   -6.9984   -3.1152 O   0  0  0  0  0  0  0  0  0  0  0  0
    7.6099   -8.1024   -2.2793 C   0  0  0  0  0  0  0  0  0  0  0  0
    6.1607   -7.8694   -2.5883 C   0  0  0  0  0  2  0  0  0  0  0  0
    7.4457   -9.2726   -1.3554 O   0  0  0  0  0  0  0  0  0  0  0  0
    7.7074  -10.4144   -0.4185 C   0  0  0  0  0  0  0  0  0  0  0  0
    8.3736  -11.4352    0.4557 N   0  0  0  0  0  0  0  0  0  0  0  0
    9.3904  -12.2523    1.1963 C   0  0  0  0  0  3  0  0  0  0  0  0
   10.6755  -12.7995    1.7431 O   0  0  0  0  0  0  0  0  0  0  0  0
   12.1247  -13.0325    2.0521 C   0  0  0  0  0  3  0  0  0  0  0  0
   13.6207  -12.9324    2.0982 C   0  0  0  0  0  3  0  0  0  0  0  0
   15.0421  -12.5073    1.8775 N   0  0  0  0  0  0  0  0  0  0  0  0
   16.2740  -11.7917    1.4081 C   0  0  0  0  0  3  0  0  0  0  0  0
   17.2164  -10.8435    0.7279 C   0  0  0  0  0  3  0  0  0  0  0  0
   17.7931   -9.7395   -0.1081 C   0  0  0  0  0  3  0  0  0  0  0  0
   17.9573   -8.5692   -1.0319 C   0  0  0  0  0  3  0  0  0  0  0  0
   17.6956   -7.4274   -1.9689 O   0  0  0  0  0  0  0  0  0  0  0  0
    6.3670  -10.9907   -0.0699 C   0  0  0  0  0  0  0  0  0  0  0  0
    7.0332  -12.0115    0.8043 O   0  0  0  0  0  0  0  0  0  0  0  0
  1  2  1  0
  2  3  1  0
  3  4  1  0
  5  4  1  0
  5  6  1  0
  6  7  1  0
  7  8  1  0
  8  9  1  0
  9 10  1  0
 10 11  1  0
 11 12  1  0
 11 13  1  0
 13 14  1  0
 13 15  1  0
 15 16  1  0
 15 17  1  0
 17 18  1  0
 17 19  1  0
 19 20  1  0
 20 21  1  0
 21 22  1  0
 22 23  1  0
 23 24  1  0
 23 25  1  0
 25 26  1  0
 26 27  1  0
 27 28  1  0
 25 29  1  0
 30 29  1  0
 30 31  1  0
 31 32  1  0
 32 33  1  0
 33 34  1  0
 30 35  1  0
 35 36  1  0
 36 37  1  0
 37 38  1  0
 37 39  1  0
 39 40  1  0
  5 41  1  0
 41 42  1  0
 42 43  1  0
 43 44  1  0
 44 45  1  0
 44 46  1  0
 46 47  1  0
 47 48  1  0
 48 49  1  0
 49 50  1  0
 50 51  1  0
 51 52  1  0
 52 53  1  0
 53 54  1  0
 54 55  1  0
 55 56  1  0
 56 57  1  0
 57 58  1  0
 47 59  1  0
 59 60  1  0
 58  9  1  0
 60 48  1  0
M  RAD  8   3   2   7   2   8   2  20   2  21   2  26   2  27   3  28   3
M  RAD  8  29   2  32   2  33   2  38   3  40   3  42   2  45   3  49   2
M  RAD  6  51   2  52   2  54   2  55   2  56   2  57   2
M  END
>  <docking_score>  (2) 
86.703000000000003

$$$$
