
     RDKit          3D

  5  4  0  0  0  0  0  0  0  0999 V2000
  140.0320  115.1035  147.7648 Br  0  0  0  0  0  0  0  0  0  0  0  0
  140.7902  115.4271  149.4813 N   0  0  0  0  0  2  0  0  0  0  0  0
  141.5674  114.3759  149.8328 O   0  0  0  0  0  0  0  0  0  0  0  0
  142.8597  114.8997  150.0242 C   0  0  0  0  0  0  0  0  0  0  0  0
  142.7152  116.2927  150.0805 F   0  0  0  0  0  0  0  0  0  0  0  0
  1  2  1  0
  2  3  1  0
  3  4  1  0
  4  5  1  0
M  CHG  1   2   1
M  RAD  1   2   3
M  END
>  <docking_score>  (1) 
-2.7570000000000001

$$$$

     RDKit          3D

  5  4  0  0  0  0  0  0  0  0999 V2000
  137.8443  117.6865  137.7491 Br  0  0  0  0  0  0  0  0  0  0  0  0
  136.4443  118.1306  138.9610 N   0  0  0  0  0  2  0  0  0  0  0  0
  135.4881  118.8283  138.3040 O   0  0  0  0  0  0  0  0  0  0  0  0
  135.6708  120.1739  138.6739 C   0  0  0  0  0  0  0  0  0  0  0  0
  136.0982  120.8447  137.5198 F   0  0  0  0  0  0  0  0  0  0  0  0
  1  2  1  0
  2  3  1  0
  3  4  1  0
  4  5  1  0
M  CHG  1   2   1
M  RAD  1   2   3
M  END
>  <docking_score>  (2) 
-2.5760000000000001

$$$$

     RDKit          3D

  5  4  0  0  0  0  0  0  0  0999 V2000
  135.7216  118.7354  137.8167 Br  0  0  0  0  0  0  0  0  0  0  0  0
  135.6191  120.2777  138.9289 N   0  0  0  0  0  2  0  0  0  0  0  0
  136.8575  120.5876  139.3796 O   0  0  0  0  0  0  0  0  0  0  0  0
  137.5789  119.3791  139.3845 C   0  0  0  0  0  0  0  0  0  0  0  0
  137.6565  118.9726  140.7236 F   0  0  0  0  0  0  0  0  0  0  0  0
  1  2  1  0
  2  3  1  0
  3  4  1  0
  4  5  1  0
M  CHG  1   2   1
M  RAD  1   2   3
M  END
>  <docking_score>  (3) 
-2.54

$$$$
