
     RDKit          3D

 21 21  0  0  0  0  0  0  0  0999 V2000
   16.6676   -2.0735   -2.5230 C   0  0  0  0  0  0  0  0  0  0  0  0
   18.0355   -2.2723   -1.9108 C   0  0  0  0  0  0  0  0  0  0  0  0
   19.0440   -1.6077   -2.8379 C   0  0  0  0  0  0  0  0  0  0  0  0
   18.3032   -3.7813   -1.8958 C   0  0  0  0  0  0  0  0  0  0  0  0
   18.7295   -4.2530   -3.2723 C   0  0  0  0  0  0  0  0  0  0  0  0
   18.1420   -5.6211   -3.5400 C   0  0  0  0  0  0  0  0  0  0  0  0
   17.1347   -5.5341   -4.6500 C   0  0  1  0  0  0  0  0  0  0  0  0
   17.4746   -6.4987   -5.7576 C   0  0  0  0  0  0  0  0  0  0  0  0
   15.7681   -5.9023   -4.1159 C   0  0  0  0  0  3  0  0  0  0  0  0
   14.9101   -6.2944   -5.3144 C   0  0  0  0  0  0  0  0  0  0  0  0
   15.3490   -5.5022   -6.5434 C   0  0  0  0  0  0  0  0  0  0  0  0
   16.6905   -6.0658   -6.9865 C   0  0  1  0  0  0  0  0  0  0  0  0
   17.4634   -4.8891   -7.5837 C   0  0  0  0  0  0  0  0  0  0  0  0
   16.5320   -3.9673   -8.3429 C   0  0  0  0  0  3  0  0  0  0  0  0
   16.9916   -2.5504   -8.0643 C   0  0  0  0  0  0  0  0  0  0  0  0
   16.5217   -2.1837   -6.6817 C   0  0  1  0  0  0  0  0  0  0  0  0
   17.5329   -1.2516   -6.0739 C   0  0  0  0  0  0  0  0  0  0  0  0
   15.1668   -1.5457   -6.7886 C   0  0  0  0  0  0  0  0  0  0  0  0
   14.9301   -0.5281   -5.7436 C   0  0  0  0  0  0  0  0  0  0  0  0
   14.0885   -0.8182   -4.7640 C   0  0  0  0  0  0  0  0  0  0  0  0
   13.8237    0.0967   -3.7512 O   0  0  0  0  0  0  0  0  0  0  0  0
  1  2  1  0
  2  3  1  0
  2  4  1  0
  4  5  1  0
  5  6  1  0
  7  6  1  1
  7  8  1  0
  7  9  1  0
  9 10  1  0
 10 11  1  0
 11 12  1  0
 12 13  1  1
 13 14  1  0
 14 15  1  0
 15 16  1  0
 16 17  1  6
 16 18  1  0
 18 19  1  0
 19 20  2  3
 20 21  1  0
 12  8  1  0
M  RAD  2   9   2  14   2
M  END
>  <docking_score>  (1) 
-4.4749999999999996

$$$$

     RDKit          3D

 21 21  0  0  0  0  0  0  0  0999 V2000
   20.0314   -3.1961   -0.8206 C   0  0  0  0  0  0  0  0  0  0  0  0
   19.3180   -2.6867   -2.0523 C   0  0  0  0  0  0  0  0  0  0  0  0
   19.5892   -1.1912   -2.1428 C   0  0  0  0  0  0  0  0  0  0  0  0
   17.8181   -2.9000   -1.8202 C   0  0  0  0  0  0  0  0  0  0  0  0
   17.0637   -1.6024   -2.0338 C   0  0  0  0  0  0  0  0  0  0  0  0
   15.8424   -1.8647   -2.8872 C   0  0  0  0  0  0  0  0  0  0  0  0
   16.2258   -1.8616   -4.3389 C   0  0  1  0  0  0  0  0  0  0  0  0
   16.2926   -3.2681   -4.8775 C   0  0  0  0  0  0  0  0  0  0  0  0
   15.1796   -1.1094   -5.1313 C   0  0  0  0  0  3  0  0  0  0  0  0
   15.3155   -1.5518   -6.5847 C   0  0  0  0  0  0  0  0  0  0  0  0
   16.7718   -1.8987   -6.8835 C   0  0  0  0  0  0  0  0  0  0  0  0
   17.0745   -3.2132   -6.1806 C   0  0  1  0  0  0  0  0  0  0  0  0
   18.5494   -3.1459   -5.7818 C   0  0  0  0  0  0  0  0  0  0  0  0
   18.9691   -4.4140   -5.0680 C   0  0  0  0  0  3  0  0  0  0  0  0
   18.5015   -5.5751   -5.9222 C   0  0  0  0  0  0  0  0  0  0  0  0
   18.2610   -6.7454   -5.0060 C   0  0  1  0  0  0  0  0  0  0  0  0
   18.0327   -6.2157   -3.6175 C   0  0  0  0  0  0  0  0  0  0  0  0
   17.0756   -7.5156   -5.5122 C   0  0  0  0  0  0  0  0  0  0  0  0
   15.7913   -6.9796   -5.0156 C   0  0  0  0  0  0  0  0  0  0  0  0
   15.0001   -6.3519   -5.8713 C   0  0  0  0  0  0  0  0  0  0  0  0
   13.7790   -5.8254   -5.4657 O   0  0  0  0  0  0  0  0  0  0  0  0
  1  2  1  0
  2  3  1  0
  2  4  1  0
  4  5  1  0
  5  6  1  0
  7  6  1  1
  7  8  1  0
  7  9  1  0
  9 10  1  0
 10 11  1  0
 11 12  1  0
 12 13  1  1
 13 14  1  0
 14 15  1  0
 15 16  1  0
 16 17  1  1
 16 18  1  0
 18 19  1  0
 19 20  2  3
 20 21  1  0
 12  8  1  0
M  RAD  2   9   2  14   2
M  END
>  <docking_score>  (2) 
-4.1369999999999996

$$$$

     RDKit          3D

 21 21  0  0  0  0  0  0  0  0999 V2000
   15.0249   -6.4656   -4.6441 C   0  0  0  0  0  0  0  0  0  0  0  0
   14.4268   -6.0411   -5.9660 C   0  0  0  0  0  0  0  0  0  0  0  0
   15.5845   -5.7657   -6.9157 C   0  0  0  0  0  0  0  0  0  0  0  0
   13.6750   -4.7292   -5.7156 C   0  0  0  0  0  0  0  0  0  0  0  0
   14.5705   -3.5442   -6.0203 C   0  0  0  0  0  0  0  0  0  0  0  0
   14.6338   -2.6370   -4.8114 C   0  0  0  0  0  0  0  0  0  0  0  0
   16.0317   -2.1173   -4.6377 C   0  0  1  0  0  0  0  0  0  0  0  0
   17.0340   -3.2403   -4.7215 C   0  0  0  0  0  0  0  0  0  0  0  0
   16.3414   -1.1341   -5.7448 C   0  0  0  0  0  3  0  0  0  0  0  0
   17.8601   -1.0306   -5.8393 C   0  0  0  0  0  0  0  0  0  0  0  0
   18.4780   -1.2464   -4.4601 C   0  0  0  0  0  0  0  0  0  0  0  0
   18.3366   -2.7245   -4.1301 C   0  0  1  0  0  0  0  0  0  0  0  0
   18.1671   -2.8012   -2.6121 C   0  0  0  0  0  0  0  0  0  0  0  0
   18.7261   -4.1028   -2.0764 C   0  0  0  0  0  3  0  0  0  0  0  0
   19.9634   -4.4191   -2.8920 C   0  0  0  0  0  0  0  0  0  0  0  0
   19.9206   -5.8850   -3.2331 C   0  0  1  0  0  0  0  0  0  0  0  0
   18.4822   -6.3226   -3.2449 C   0  0  0  0  0  0  0  0  0  0  0  0
   20.5770   -6.0866   -4.5684 C   0  0  0  0  0  0  0  0  0  0  0  0
   19.6312   -5.9543   -5.6960 C   0  0  0  0  0  0  0  0  0  0  0  0
   19.8056   -4.9564   -6.5480 C   0  0  0  0  0  0  0  0  0  0  0  0
   18.9499   -4.7783   -7.6291 O   0  0  0  0  0  0  0  0  0  0  0  0
  1  2  1  0
  2  3  1  0
  2  4  1  0
  4  5  1  0
  5  6  1  0
  7  6  1  6
  7  8  1  0
  7  9  1  0
  9 10  1  0
 10 11  1  0
 11 12  1  0
 12 13  1  1
 13 14  1  0
 14 15  1  0
 15 16  1  0
 16 17  1  6
 16 18  1  0
 18 19  1  0
 19 20  2  3
 20 21  1  0
 12  8  1  0
M  RAD  2   9   2  14   2
M  END
>  <docking_score>  (3) 
-3.8010000000000002

$$$$
