
     RDKit          3D

 28 27  0  0  0  0  0  0  0  0999 V2000
   18.9950   -1.9491   -3.1050 C   0  0  0  0  0  0  0  0  0  0  0  0
   18.3600   -2.7959   -2.0149 C   0  0  0  0  0  0  0  0  0  0  0  0
   18.2076   -4.1928   -2.5325 C   0  0  2  0  0  0  0  0  0  0  0  0
   17.1206   -4.9780   -1.8649 C   0  0  0  0  0  0  0  0  0  0  0  0
   19.4974   -4.9124   -2.5807 C   0  0  0  0  0  0  0  0  0  0  0  0
   20.4424   -4.5922   -1.8326 O   0  0  0  0  0  0  0  0  0  0  0  0
   19.6525   -5.9858   -3.4991 N   0  0  0  0  0  0  0  0  0  0  0  0
   20.9052   -6.6767   -3.5390 C   0  0  0  0  0  3  0  0  0  0  0  0
   21.3756   -6.8247   -4.9604 C   0  0  0  0  0  0  0  0  0  0  0  0
   20.2736   -7.3839   -5.8118 C   0  0  2  0  0  0  0  0  0  0  0  0
   20.8393   -7.9315   -7.1286 C   0  0  0  0  0  0  0  0  0  0  0  0
   19.3062   -6.3122   -6.2001 C   0  0  0  0  0  0  0  0  0  0  0  0
   19.6900   -5.4227   -7.0789 C   0  0  0  0  0  0  0  0  0  0  0  0
   18.7966   -4.3498   -7.5033 C   0  0  0  0  0  0  0  0  0  0  0  0
   17.5264   -4.5574   -7.7932 C   0  0  0  0  0  0  0  0  0  0  0  0
   16.7029   -3.4085   -8.2131 C   0  0  2  0  0  0  0  0  0  0  0  0
   17.5017   -2.2628   -8.7356 C   0  0  0  0  0  0  0  0  0  0  0  0
   15.7820   -3.0138   -7.1119 C   0  0  2  0  0  0  0  0  0  0  0  0
   16.4903   -2.6140   -5.8374 C   0  0  0  0  0  0  0  0  0  0  0  0
   15.9848   -1.3099   -5.2930 C   0  0  0  0  0  0  0  0  0  0  0  0
   14.9577   -1.5216   -4.1917 C   0  0  0  0  0  3  0  0  0  0  0  0
   13.6721   -0.8230   -4.5785 C   0  0  0  0  0  0  0  0  0  0  0  0
   14.0454    0.4698   -5.3014 C   0  0  0  0  0  2  0  0  0  0  0  0
   14.7766   -4.1159   -6.8469 C   0  0  0  0  0  0  0  0  0  0  0  0
   15.1596   -4.7590   -5.6536 O   0  0  0  0  0  0  0  0  0  0  0  0
   15.1780   -6.1536   -5.6221 C   0  0  0  0  0  0  0  0  0  0  0  0
   14.4367   -6.8646   -4.5666 C   0  0  0  0  0  2  0  0  0  0  0  0
   15.8179   -6.7947   -6.4821 O   0  0  0  0  0  0  0  0  0  0  0  0
  1  2  1  0
  2  3  1  0
  3  4  1  1
  3  5  1  0
  5  6  2  0
  5  7  1  0
  7  8  1  0
  8  9  1  0
  9 10  1  0
 10 11  1  6
 10 12  1  0
 12 13  2  3
 13 14  1  0
 14 15  2  3
 15 16  1  0
 16 17  1  1
 16 18  1  0
 18 19  1  1
 19 20  1  0
 20 21  1  0
 21 22  1  0
 22 23  1  0
 18 24  1  0
 24 25  1  0
 25 26  1  0
 26 27  1  0
 26 28  2  0
M  RAD  4   8   2  21   2  23   3  27   3
M  END
>  <docking_score>  (1) 
-3.4670000000000001

$$$$

     RDKit          3D

 28 27  0  0  0  0  0  0  0  0999 V2000
    7.5784   15.1236    2.5114 C   0  0  0  0  0  0  0  0  0  0  0  0
    6.5766   14.0302    2.8419 C   0  0  0  0  0  0  0  0  0  0  0  0
    7.1259   12.7251    2.3544 C   0  0  2  0  0  0  0  0  0  0  0  0
    6.7582   12.3959    0.9402 C   0  0  0  0  0  0  0  0  0  0  0  0
    6.8540   11.6200    3.2970 C   0  0  0  0  0  0  0  0  0  0  0  0
    7.4901   11.5117    4.3641 O   0  0  0  0  0  0  0  0  0  0  0  0
    5.8483   10.6699    2.9715 N   0  0  0  0  0  0  0  0  0  0  0  0
    5.5919    9.6029    3.8902 C   0  0  0  0  0  3  0  0  0  0  0  0
    4.2671    8.9582    3.5861 C   0  0  0  0  0  0  0  0  0  0  0  0
    3.1518    9.7707    4.1758 C   0  0  2  0  0  0  0  0  0  0  0  0
    3.4076   11.2680    3.9599 C   0  0  0  0  0  0  0  0  0  0  0  0
    3.0813    9.5804    5.6570 C   0  0  0  0  0  0  0  0  0  0  0  0
    4.2038    9.5168    6.3255 C   0  0  0  0  0  0  0  0  0  0  0  0
    4.2082    9.3325    7.7730 C   0  0  0  0  0  0  0  0  0  0  0  0
    4.4263   10.3254    8.6139 C   0  0  0  0  0  0  0  0  0  0  0  0
    4.4107   10.0397   10.0605 C   0  0  2  0  0  0  0  0  0  0  0  0
    4.4377    8.5834   10.3800 C   0  0  0  0  0  0  0  0  0  0  0  0
    3.2729   10.7500   10.7065 C   0  0  2  0  0  0  0  0  0  0  0  0
    2.2919   11.3509    9.7253 C   0  0  0  0  0  0  0  0  0  0  0  0
    2.2576   12.8493    9.8036 C   0  0  0  0  0  0  0  0  0  0  0  0
    2.5601   13.4889    8.4575 C   0  0  0  0  0  3  0  0  0  0  0  0
    2.9421   14.9368    8.6767 C   0  0  0  0  0  0  0  0  0  0  0  0
    3.9572   15.3173    7.6006 C   0  0  0  0  0  2  0  0  0  0  0  0
    3.7875   11.8025   11.6673 C   0  0  0  0  0  0  0  0  0  0  0  0
    3.4260   11.4000   12.9679 O   0  0  0  0  0  0  0  0  0  0  0  0
    4.2962   11.6827   14.0210 C   0  0  0  0  0  0  0  0  0  0  0  0
    4.3065   10.8094   15.2069 C   0  0  0  0  0  2  0  0  0  0  0  0
    5.0607   12.6685   13.9592 O   0  0  0  0  0  0  0  0  0  0  0  0
  1  2  1  0
  2  3  1  0
  3  4  1  6
  3  5  1  0
  5  6  2  0
  5  7  1  0
  7  8  1  0
  8  9  1  0
  9 10  1  0
 10 11  1  1
 10 12  1  0
 12 13  2  3
 13 14  1  0
 14 15  2  3
 15 16  1  0
 16 17  1  6
 16 18  1  0
 18 19  1  6
 19 20  1  0
 20 21  1  0
 21 22  1  0
 22 23  1  0
 18 24  1  0
 24 25  1  0
 25 26  1  0
 26 27  1  0
 26 28  2  0
M  RAD  4   8   2  21   2  23   3  27   3
M  END
>  <docking_score>  (2) 
-2.052

$$$$

     RDKit          3D

 28 27  0  0  0  0  0  0  0  0999 V2000
   14.8564   -7.1001   -4.4911 C   0  0  0  0  0  0  0  0  0  0  0  0
   16.2784   -7.5575   -4.7686 C   0  0  0  0  0  0  0  0  0  0  0  0
   17.1230   -6.3460   -5.0169 C   0  0  2  0  0  0  0  0  0  0  0  0
   17.9734   -6.4339   -6.2468 C   0  0  0  0  0  0  0  0  0  0  0  0
   17.8809   -5.9401   -3.8151 C   0  0  0  0  0  0  0  0  0  0  0  0
   17.3877   -5.1625   -2.9741 O   0  0  0  0  0  0  0  0  0  0  0  0
   19.1935   -6.4507   -3.6246 N   0  0  0  0  0  0  0  0  0  0  0  0
   19.9202   -6.0520   -2.4579 C   0  0  0  0  0  3  0  0  0  0  0  0
   21.2199   -5.4024   -2.8481 C   0  0  0  0  0  0  0  0  0  0  0  0
   21.3823   -4.0990   -2.1223 C   0  0  2  0  0  0  0  0  0  0  0  0
   20.7976   -4.1973   -0.7072 C   0  0  0  0  0  0  0  0  0  0  0  0
   20.6149   -3.0120   -2.8040 C   0  0  0  0  0  0  0  0  0  0  0  0
   20.2157   -3.2153   -4.0329 C   0  0  0  0  0  0  0  0  0  0  0  0
   19.4622   -2.1971   -4.7575 C   0  0  0  0  0  0  0  0  0  0  0  0
   18.9052   -2.4278   -5.9310 C   0  0  0  0  0  0  0  0  0  0  0  0
   18.1631   -1.3345   -6.5856 C   0  0  2  0  0  0  0  0  0  0  0  0
   18.4422    0.0083   -6.0004 C   0  0  0  0  0  0  0  0  0  0  0  0
   16.7100   -1.6566   -6.6209 C   0  0  2  0  0  0  0  0  0  0  0  0
   15.8349   -0.6010   -5.9837 C   0  0  0  0  0  0  0  0  0  0  0  0
   14.9886   -1.1587   -4.8769 C   0  0  0  0  0  0  0  0  0  0  0  0
   13.5060   -1.0647   -5.2019 C   0  0  0  0  0  3  0  0  0  0  0  0
   12.7996   -0.3500   -4.0703 C   0  0  0  0  0  0  0  0  0  0  0  0
   11.3193   -0.7204   -4.1393 C   0  0  0  0  0  2  0  0  0  0  0  0
   16.4572   -3.0144   -5.9980 C   0  0  0  0  0  0  0  0  0  0  0  0
   16.1627   -3.9107   -7.0440 O   0  0  0  0  0  0  0  0  0  0  0  0
   14.8282   -4.2334   -7.2917 C   0  0  0  0  0  0  0  0  0  0  0  0
   14.4025   -4.5519   -8.6652 C   0  0  0  0  0  2  0  0  0  0  0  0
   14.0006   -4.2522   -6.3564 O   0  0  0  0  0  0  0  0  0  0  0  0
  1  2  1  0
  2  3  1  0
  3  4  1  6
  3  5  1  0
  5  6  2  0
  5  7  1  0
  7  8  1  0
  8  9  1  0
  9 10  1  0
 10 11  1  1
 10 12  1  0
 12 13  2  3
 13 14  1  0
 14 15  2  3
 15 16  1  0
 16 17  1  1
 16 18  1  0
 18 19  1  1
 19 20  1  0
 20 21  1  0
 21 22  1  0
 22 23  1  0
 18 24  1  0
 24 25  1  0
 25 26  1  0
 26 27  1  0
 26 28  2  0
M  RAD  4   8   2  21   2  23   3  27   3
M  END
>  <docking_score>  (3) 
-1.7310000000000001

$$$$
