
     RDKit          3D

 11 11  0  0  0  0  0  0  0  0999 V2000
    4.9250   -3.9003   -7.4232 O   0  0  0  0  0  0  0  0  0  0  0  0
    5.5005   -2.7317   -7.9029 C   0  0  0  0  0  0  0  0  0  0  0  0
    5.4932   -1.6462   -6.8430 C   0  0  1  0  0  0  0  0  0  0  0  0
    6.5830   -1.9067   -5.9445 N   0  0  0  0  0  0  0  0  0  0  0  0
    6.8239   -0.8343   -5.0210 C   0  0  0  0  0  3  0  0  0  0  0  0
    7.1470    0.4143   -5.7915 C   0  0  2  0  0  0  0  0  0  0  0  0
    7.3188    1.4496   -4.8507 O   0  0  0  0  0  0  0  0  0  0  0  0
    5.9283    0.8137   -6.6160 C   0  0  1  0  0  0  0  0  0  0  0  0
    6.2466    1.9288   -7.3625 O   0  0  0  0  0  0  0  0  0  0  0  0
    5.5723   -0.3225   -7.5341 C   0  0  1  0  0  0  0  0  0  0  0  0
    6.5237   -0.3952   -8.5402 O   0  0  0  0  0  0  0  0  0  0  0  0
  1  2  1  0
  3  2  1  6
  3  4  1  0
  4  5  1  0
  5  6  1  0
  6  7  1  1
  6  8  1  0
  8  9  1  6
  8 10  1  0
 10 11  1  6
 10  3  1  0
M  RAD  1   5   2
M  END
>  <docking_score>  (1) 
-4.3099999999999996

$$$$

     RDKit          3D

 11 11  0  0  0  0  0  0  0  0999 V2000
    6.4380    2.3516   -5.5164 O   0  0  0  0  0  0  0  0  0  0  0  0
    7.0035    1.1490   -5.9177 C   0  0  0  0  0  0  0  0  0  0  0  0
    5.9662    0.2467   -6.5592 C   0  0  1  0  0  0  0  0  0  0  0  0
    6.3075    0.1079   -7.9474 N   0  0  0  0  0  0  0  0  0  0  0  0
    5.5333   -0.8944   -8.6232 C   0  0  0  0  0  3  0  0  0  0  0  0
    5.7581   -2.2215   -7.9559 C   0  0  2  0  0  0  0  0  0  0  0  0
    4.9379   -3.1606   -8.6133 O   0  0  0  0  0  0  0  0  0  0  0  0
    5.2292   -2.1508   -6.5277 C   0  0  1  0  0  0  0  0  0  0  0  0
    5.4859   -3.3527   -5.9020 O   0  0  0  0  0  0  0  0  0  0  0  0
    5.9417   -1.0430   -5.8028 C   0  0  1  0  0  0  0  0  0  0  0  0
    7.2454   -1.4432   -5.5515 O   0  0  0  0  0  0  0  0  0  0  0  0
  1  2  1  0
  3  2  1  1
  3  4  1  0
  4  5  1  0
  5  6  1  0
  6  7  1  6
  6  8  1  0
  8  9  1  1
  8 10  1  0
 10 11  1  6
 10  3  1  0
M  RAD  1   5   2
M  END
>  <docking_score>  (2) 
-4.1440000000000001

$$$$
