
     RDKit          3D

 17 18  0  0  0  0  0  0  0  0999 V2000
   18.6589   -5.1346   -2.6599 C   0  0  0  0  0  0  0  0  0  0  0  0
   17.1584   -4.9806   -2.6780 C   0  0  1  0  0  0  0  0  0  0  0  0
   16.6725   -3.7872   -1.9280 C   0  0  0  0  0  0  0  0  0  0  0  0
   16.8853   -2.4847   -2.6291 C   0  0  2  0  0  0  0  0  0  0  0  0
   16.2741   -1.4795   -1.9116 O   0  0  0  0  0  0  0  0  0  0  0  0
   16.3674   -2.5026   -4.0654 C   0  0  2  0  0  0  0  0  0  0  0  0
   15.0346   -2.9281   -3.9855 O   0  0  0  0  0  0  0  0  0  0  0  0
   17.1276   -3.6289   -4.7601 C   0  0  1  0  0  0  0  0  0  0  0  0
   18.4856   -3.4740   -4.5136 O   0  0  0  0  0  0  0  0  0  0  0  0
   16.6779   -4.9179   -4.1004 C   0  0  1  0  0  0  0  0  0  0  0  0
   17.1521   -6.0089   -4.9130 N   0  0  0  0  0  0  0  0  0  0  0  0
   17.3853   -5.5459   -6.2787 C   0  0  0  0  0  3  0  0  0  0  0  0
   16.0743   -5.5562   -7.0233 C   0  0  0  0  0  0  0  0  0  0  0  0
   15.4065   -4.1870   -7.0141 C   0  0  1  0  0  0  0  0  0  0  0  0
   14.6945   -3.9716   -8.1747 O   0  0  0  0  0  0  0  0  0  0  0  0
   14.4818   -4.0591   -5.8198 C   0  0  0  0  0  3  0  0  0  0  0  0
   14.5514   -2.8192   -5.2187 O   0  0  0  0  0  0  0  0  0  0  0  0
  2  1  1  6
  2  3  1  0
  3  4  1  0
  4  5  1  1
  4  6  1  0
  6  7  1  1
  6  8  1  0
  8  9  1  1
  8 10  1  0
 10 11  1  6
 11 12  1  0
 12 13  1  0
 13 14  1  0
 14 15  1  6
 14 16  1  0
 16 17  1  0
 10  2  1  0
 17  7  1  0
M  RAD  2  12   2  16   2
M  END
>  <docking_score>  (1) 
-5.2030000000000003

$$$$

     RDKit          3D

 17 18  0  0  0  0  0  0  0  0999 V2000
   14.8742   -5.6122   -6.9254 C   0  0  0  0  0  0  0  0  0  0  0  0
   14.9578   -5.9093   -5.4489 C   0  0  1  0  0  0  0  0  0  0  0  0
   15.8615   -7.0487   -5.1202 C   0  0  0  0  0  0  0  0  0  0  0  0
   17.3189   -6.7307   -5.2105 C   0  0  2  0  0  0  0  0  0  0  0  0
   18.0462   -7.8072   -4.7512 O   0  0  0  0  0  0  0  0  0  0  0  0
   17.6909   -5.4688   -4.4356 C   0  0  2  0  0  0  0  0  0  0  0  0
   17.1996   -5.6592   -3.1370 O   0  0  0  0  0  0  0  0  0  0  0  0
   16.8481   -4.3516   -5.0445 C   0  0  1  0  0  0  0  0  0  0  0  0
   16.9879   -4.3847   -6.4259 O   0  0  0  0  0  0  0  0  0  0  0  0
   15.4046   -4.6772   -4.7139 C   0  0  1  0  0  0  0  0  0  0  0  0
   14.6163   -3.5110   -5.0203 N   0  0  0  0  0  0  0  0  0  0  0  0
   15.4626   -2.3204   -5.0006 C   0  0  0  0  0  3  0  0  0  0  0  0
   15.6065   -1.8531   -3.5743 C   0  0  0  0  0  0  0  0  0  0  0  0
   16.8830   -2.3801   -2.9313 C   0  0  1  0  0  0  0  0  0  0  0  0
   17.3901   -1.4799   -2.0186 O   0  0  0  0  0  0  0  0  0  0  0  0
   16.6196   -3.7056   -2.2447 C   0  0  0  0  0  3  0  0  0  0  0  0
   17.6362   -4.6188   -2.4349 O   0  0  0  0  0  0  0  0  0  0  0  0
  2  1  1  6
  2  3  1  0
  3  4  1  0
  4  5  1  1
  4  6  1  0
  6  7  1  1
  6  8  1  0
  8  9  1  6
  8 10  1  0
 10 11  1  6
 11 12  1  0
 12 13  1  0
 13 14  1  0
 14 15  1  1
 14 16  1  0
 16 17  1  0
 10  2  1  0
 17  7  1  0
M  RAD  2  12   2  16   2
M  END
>  <docking_score>  (2) 
-5.1559999999999997

$$$$

     RDKit          3D

 17 18  0  0  0  0  0  0  0  0999 V2000
   15.3881   -2.4185   -6.8529 C   0  0  0  0  0  0  0  0  0  0  0  0
   14.9005   -2.8307   -5.4863 C   0  0  1  0  0  0  0  0  0  0  0  0
   14.2867   -4.1891   -5.4569 C   0  0  0  0  0  0  0  0  0  0  0  0
   15.2676   -5.3147   -5.5238 C   0  0  2  0  0  0  0  0  0  0  0  0
   14.6005   -6.5073   -5.3468 O   0  0  0  0  0  0  0  0  0  0  0  0
   16.3883   -5.1753   -4.4962 C   0  0  2  0  0  0  0  0  0  0  0  0
   15.7529   -5.0085   -3.2584 O   0  0  0  0  0  0  0  0  0  0  0  0
   17.0631   -3.8418   -4.8056 C   0  0  1  0  0  0  0  0  0  0  0  0
   17.3548   -3.7894   -6.1624 O   0  0  0  0  0  0  0  0  0  0  0  0
   16.0382   -2.7651   -4.5069 C   0  0  1  0  0  0  0  0  0  0  0  0
   16.7256   -1.4991   -4.5126 N   0  0  0  0  0  0  0  0  0  0  0  0
   18.1483   -1.7054   -4.2529 C   0  0  0  0  0  3  0  0  0  0  0  0
   18.3568   -1.8163   -2.7637 C   0  0  0  0  0  0  0  0  0  0  0  0
   18.3894   -3.2678   -2.3025 C   0  0  1  0  0  0  0  0  0  0  0  0
   19.2372   -3.4306   -1.2277 O   0  0  0  0  0  0  0  0  0  0  0  0
   16.9967   -3.7331   -1.9260 C   0  0  0  0  0  3  0  0  0  0  0  0
   16.7266   -5.0166   -2.3541 O   0  0  0  0  0  0  0  0  0  0  0  0
  2  1  1  6
  2  3  1  0
  3  4  1  0
  4  5  1  1
  4  6  1  0
  6  7  1  1
  6  8  1  0
  8  9  1  6
  8 10  1  0
 10 11  1  6
 11 12  1  0
 12 13  1  0
 13 14  1  0
 14 15  1  1
 14 16  1  0
 16 17  1  0
 10  2  1  0
 17  7  1  0
M  RAD  2  12   2  16   2
M  END
>  <docking_score>  (3) 
-4.9630000000000001

$$$$
