
     RDKit          3D

 17 18  0  0  0  0  0  0  0  0999 V2000
   16.7968   -5.2561   -3.1237 C   0  0  1  0  0  0  0  0  0  0  0  0
   15.7206   -5.7673   -3.8104 O   0  0  0  0  0  0  0  0  0  0  0  0
   16.0964   -6.2620   -5.0429 C   0  0  0  0  0  3  0  0  0  0  0  0
   15.9135   -5.3608   -6.0766 O   0  0  0  0  0  0  0  0  0  0  0  0
   14.7636   -4.5991   -5.9399 C   0  0  2  0  0  0  0  0  0  0  0  0
   13.5782   -5.2028   -6.6507 C   0  0  0  0  0  0  0  0  0  0  0  0
   14.9776   -3.1872   -6.4611 C   0  0  0  0  0  3  0  0  0  0  0  0
   15.2138   -2.2156   -5.3100 C   0  0  1  0  0  0  0  0  0  0  0  0
   13.9262   -1.5616   -5.0838 N   0  0  0  0  0  0  0  0  0  0  0  0
   14.1156   -0.2806   -4.4524 C   0  0  0  0  0  2  0  0  0  0  0  0
   15.5256   -3.0431   -4.1009 C   0  0  0  0  0  0  0  0  0  0  0  0
   16.6509   -2.5134   -3.2616 C   0  0  2  0  0  0  0  0  0  0  0  0
   17.9377   -3.2683   -3.5314 C   0  0  0  0  0  0  0  0  0  0  0  0
   17.7210   -4.5864   -3.8466 O   0  0  0  0  0  0  0  0  0  0  0  0
   16.2849   -2.7163   -1.9215 O   0  0  0  0  0  0  0  0  0  0  0  0
   16.9765   -3.7251   -1.4654 O   0  0  0  0  0  0  0  0  0  0  0  0
   16.5560   -4.8855   -1.8463 O   0  0  0  0  0  0  0  0  0  0  0  0
  1  2  1  6
  2  3  1  0
  3  4  1  0
  4  5  1  0
  5  6  1  6
  5  7  1  0
  7  8  1  0
  8  9  1  1
  9 10  1  0
  8 11  1  0
 12 11  1  6
 12 13  1  0
 13 14  1  0
 12 15  1  0
 15 16  1  0
 16 17  1  0
 14  1  1  0
 17  1  1  0
M  RAD  3   3   2   7   2  10   3
M  END
>  <docking_score>  (1) 
-5.0960000000000001

$$$$

     RDKit          3D

 17 18  0  0  0  0  0  0  0  0999 V2000
   16.7915   -6.2499   -4.5806 C   0  0  1  0  0  0  0  0  0  0  0  0
   17.5449   -5.2815   -3.9597 O   0  0  0  0  0  0  0  0  0  0  0  0
   17.1331   -5.0782   -2.6581 C   0  0  0  0  0  3  0  0  0  0  0  0
   16.2515   -4.0211   -2.5187 O   0  0  0  0  0  0  0  0  0  0  0  0
   16.5516   -2.9475   -3.3424 C   0  0  2  0  0  0  0  0  0  0  0  0
   17.4261   -1.9219   -2.6656 C   0  0  0  0  0  0  0  0  0  0  0  0
   15.2855   -2.2626   -3.8312 C   0  0  0  0  0  3  0  0  0  0  0  0
   14.9593   -2.6845   -5.2597 C   0  0  1  0  0  0  0  0  0  0  0  0
   15.4541   -1.6009   -6.1069 N   0  0  0  0  0  0  0  0  0  0  0  0
   14.8282   -0.3541   -5.7474 C   0  0  0  0  0  2  0  0  0  0  0  0
   15.7798   -3.9037   -5.5500 C   0  0  0  0  0  0  0  0  0  0  0  0
   15.0435   -4.9846   -6.2853 C   0  0  2  0  0  0  0  0  0  0  0  0
   14.5976   -6.0835   -5.3409 C   0  0  0  0  0  0  0  0  0  0  0  0
   15.4704   -6.2710   -4.2984 O   0  0  0  0  0  0  0  0  0  0  0  0
   15.9465   -5.5293   -7.2121 O   0  0  0  0  0  0  0  0  0  0  0  0
   16.3395   -6.6874   -6.7556 O   0  0  0  0  0  0  0  0  0  0  0  0
   17.2150   -6.6263   -5.8078 O   0  0  0  0  0  0  0  0  0  0  0  0
  1  2  1  6
  2  3  1  0
  3  4  1  0
  4  5  1  0
  5  6  1  1
  5  7  1  0
  7  8  1  0
  8  9  1  6
  9 10  1  0
  8 11  1  0
 12 11  1  1
 12 13  1  0
 13 14  1  0
 12 15  1  0
 15 16  1  0
 16 17  1  0
 14  1  1  0
 17  1  1  0
M  RAD  3   3   2   7   2  10   3
M  END
>  <docking_score>  (2) 
-4.968

$$$$

     RDKit          3D

 17 18  0  0  0  0  0  0  0  0999 V2000
   15.4437   -3.8175   -6.2889 C   0  0  1  0  0  0  0  0  0  0  0  0
   16.4047   -4.7053   -5.8658 O   0  0  0  0  0  0  0  0  0  0  0  0
   15.8455   -5.7717   -5.1911 C   0  0  0  0  0  3  0  0  0  0  0  0
   15.8484   -5.6158   -3.8165 O   0  0  0  0  0  0  0  0  0  0  0  0
   16.9939   -4.9980   -3.3394 C   0  0  2  0  0  0  0  0  0  0  0  0
   18.0604   -5.9842   -2.9333 C   0  0  0  0  0  0  0  0  0  0  0  0
   16.6786   -4.1038   -2.1512 C   0  0  0  0  0  3  0  0  0  0  0  0
   16.6136   -2.6411   -2.5771 C   0  0  1  0  0  0  0  0  0  0  0  0
   17.9108   -2.0733   -2.2143 N   0  0  0  0  0  0  0  0  0  0  0  0
   18.5525   -1.5029   -3.3712 C   0  0  0  0  0  2  0  0  0  0  0  0
   16.5102   -2.6287   -4.0715 C   0  0  0  0  0  0  0  0  0  0  0  0
   15.5246   -1.6368   -4.6155 C   0  0  2  0  0  0  0  0  0  0  0  0
   14.2228   -2.3124   -4.9993 C   0  0  0  0  0  0  0  0  0  0  0  0
   14.4064   -3.5949   -5.4524 O   0  0  0  0  0  0  0  0  0  0  0  0
   16.1017   -1.0868   -5.7711 O   0  0  0  0  0  0  0  0  0  0  0  0
   15.5065   -1.6141   -6.8063 O   0  0  0  0  0  0  0  0  0  0  0  0
   15.8786   -2.8184   -7.0888 O   0  0  0  0  0  0  0  0  0  0  0  0
  1  2  1  1
  2  3  1  0
  3  4  1  0
  4  5  1  0
  5  6  1  1
  5  7  1  0
  7  8  1  0
  8  9  1  6
  9 10  1  0
  8 11  1  0
 12 11  1  6
 12 13  1  0
 13 14  1  0
 12 15  1  0
 15 16  1  0
 16 17  1  0
 14  1  1  0
 17  1  1  0
M  RAD  3   3   2   7   2  10   3
M  END
>  <docking_score>  (3) 
-4.8959999999999999

$$$$
