
     RDKit          3D

 25 27  0  0  0  0  0  0  0  0999 V2000
   17.6161   -5.4779   -2.7221 C   0  0  0  0  0  0  0  0  0  0  0  0
   16.4869   -4.6956   -2.1617 C   0  0  0  0  0  3  0  0  0  0  0  0
   16.5970   -3.2190   -2.3551 C   0  0  0  0  0  0  0  0  0  0  0  0
   16.6399   -2.7788   -3.7796 C   0  0  2  0  0  0  0  0  0  0  0  0
   17.9030   -2.3011   -4.0861 O   0  0  0  0  0  0  0  0  0  0  0  0
   15.6059   -1.7817   -4.1626 C   0  0  2  0  0  0  0  0  0  0  0  0
   15.1314   -1.1525   -2.9927 O   0  0  0  0  0  0  0  0  0  0  0  0
   14.4328   -2.3295   -4.8935 C   0  0  1  0  0  0  0  0  0  0  0  0
   13.4672   -1.2999   -4.9694 O   0  0  0  0  0  0  0  0  0  0  0  0
   14.6794   -2.7461   -6.1745 O   0  0  0  0  0  0  0  0  0  0  0  0
   15.9975   -2.7794   -6.5416 C   0  0  0  0  0  3  0  0  0  0  0  0
   16.3207   -4.0121   -7.2734 C   0  0  0  0  0  3  0  0  0  0  0  0
   16.1106   -5.2104   -6.6820 N   0  0  0  0  0  0  0  0  0  0  0  0
   15.2800   -5.3659   -5.5167 C   0  0  0  0  0  3  0  0  0  0  0  0
   15.7736   -6.0890   -4.2395 C   0  0  0  0  0  0  0  0  0  0  0  0
   17.3015   -6.0518   -3.9801 C   0  0  1  0  0  0  0  0  0  0  0  0
   17.5973   -5.2182   -5.1164 O   0  0  0  0  0  0  0  0  0  0  0  0
   18.1186   -7.1339   -4.4089 O   0  0  0  0  0  0  0  0  0  0  0  0
   18.9772   -6.8688   -5.5104 C   0  0  1  0  0  0  0  0  0  0  0  0
   19.5558   -8.0927   -5.7901 O   0  0  0  0  0  0  0  0  0  0  0  0
   18.4608   -6.3203   -6.8410 C   0  0  2  0  0  0  0  0  0  0  0  0
   19.0595   -5.1644   -7.2723 O   0  0  0  0  0  0  0  0  0  0  0  0
   16.9548   -6.3301   -7.1313 C   0  0  1  0  0  0  0  0  0  0  0  0
   16.6393   -7.1591   -5.9828 O   0  0  0  0  0  0  0  0  0  0  0  0
   17.0982   -6.1955   -5.5469 O   0  0  0  0  0  0  0  0  0  0  0  0
  1  2  1  0
  2  3  1  0
  3  4  1  0
  4  5  1  1
  4  6  1  0
  6  7  1  1
  6  8  1  0
  8  9  1  6
  8 10  1  0
 10 11  1  0
 11 12  1  0
 12 13  1  0
 13 14  1  0
 14 15  1  0
 15 16  1  0
 16 17  1  0
 16 18  1  0
 18 19  1  0
 19 20  1  6
 19 21  1  0
 21 22  1  1
 21 23  1  0
 23 24  1  1
 24 25  1  0
 16  1  1  1
 23 13  1  0
 25 17  1  0
M  RAD  4   2   2  11   2  12   2  14   2
M  END
>  <docking_score>  (1) 
-6.734

$$$$

     RDKit          3D

 25 27  0  0  0  0  0  0  0  0999 V2000
   18.3007   -1.6482   -5.9272 C   0  0  0  0  0  0  0  0  0  0  0  0
   17.2699   -1.7984   -6.9837 C   0  0  0  0  0  3  0  0  0  0  0  0
   17.2903   -3.1140   -7.6897 C   0  0  0  0  0  0  0  0  0  0  0  0
   17.0500   -4.2958   -6.8118 C   0  0  2  0  0  0  0  0  0  0  0  0
   18.2157   -5.0323   -6.6857 O   0  0  0  0  0  0  0  0  0  0  0  0
   15.9284   -5.1760   -7.2329 C   0  0  2  0  0  0  0  0  0  0  0  0
   15.6599   -4.9422   -8.5978 O   0  0  0  0  0  0  0  0  0  0  0  0
   14.6589   -4.9937   -6.4808 C   0  0  1  0  0  0  0  0  0  0  0  0
   13.6609   -5.7325   -7.1563 O   0  0  0  0  0  0  0  0  0  0  0  0
   14.6754   -5.4311   -5.1832 O   0  0  0  0  0  0  0  0  0  0  0  0
   15.9017   -5.7988   -4.6991 C   0  0  0  0  0  3  0  0  0  0  0  0
   16.1248   -5.2730   -3.3451 C   0  0  0  0  0  3  0  0  0  0  0  0
   16.0712   -3.9381   -3.1335 N   0  0  0  0  0  0  0  0  0  0  0  0
   15.4797   -3.0258   -4.0767 C   0  0  0  0  0  3  0  0  0  0  0  0
   16.2289   -1.7755   -4.5997 C   0  0  0  0  0  0  0  0  0  0  0  0
   17.7761   -1.8679   -4.6282 C   0  0  1  0  0  0  0  0  0  0  0  0
   17.8243   -3.2353   -4.1794 O   0  0  0  0  0  0  0  0  0  0  0  0
   18.5355   -1.3572   -3.5396 O   0  0  0  0  0  0  0  0  0  0  0  0
   19.1626   -2.3249   -2.7083 C   0  0  1  0  0  0  0  0  0  0  0  0
   19.7209   -1.5810   -1.6856 O   0  0  0  0  0  0  0  0  0  0  0  0
   18.3872   -3.4621   -2.0425 C   0  0  2  0  0  0  0  0  0  0  0  0
   18.8538   -4.7246   -2.3055 O   0  0  0  0  0  0  0  0  0  0  0  0
   16.8548   -3.4127   -2.0028 C   0  0  1  0  0  0  0  0  0  0  0  0
   16.7893   -2.0393   -2.4666 O   0  0  0  0  0  0  0  0  0  0  0  0
   17.2878   -2.6274   -3.3237 O   0  0  0  0  0  0  0  0  0  0  0  0
  1  2  1  0
  2  3  1  0
  3  4  1  0
  4  5  1  6
  4  6  1  0
  6  7  1  6
  6  8  1  0
  8  9  1  6
  8 10  1  0
 10 11  1  0
 11 12  1  0
 12 13  1  0
 13 14  1  0
 14 15  1  0
 15 16  1  0
 16 17  1  0
 16 18  1  0
 18 19  1  0
 19 20  1  1
 19 21  1  0
 21 22  1  6
 21 23  1  0
 23 24  1  6
 24 25  1  0
 16  1  1  6
 23 13  1  0
 25 17  1  0
M  RAD  4   2   2  11   2  12   2  14   2
M  END
>  <docking_score>  (2) 
-6.6109999999999998

$$$$
