
     RDKit          3D

 36 36  0  0  0  0  0  0  0  0999 V2000
    8.0652   11.4109    4.1934 C   0  0  0  0  0  0  0  0  0  0  0  0
    7.2990   10.4665    5.0380 C   0  0  0  0  0  0  0  0  0  0  0  0
    5.9859   10.5414    5.1581 C   0  0  0  0  0  0  0  0  0  0  0  0
    5.2916   11.5924    4.4286 C   0  0  0  0  0  0  0  0  0  0  0  0
    5.5497   11.8206    3.1510 C   0  0  0  0  0  0  0  0  0  0  0  0
    4.7918   12.9183    2.4785 C   0  0  1  0  0  0  0  0  0  0  0  0
    4.0064   13.5646    3.4472 O   0  0  0  0  0  0  0  0  0  0  0  0
    5.7692   13.9418    1.9622 C   0  0  0  0  0  0  0  0  0  0  0  0
    7.1041   13.3014    1.6382 C   0  0  1  0  0  0  0  0  0  0  0  0
    7.5454   13.6183    0.3588 O   0  0  0  0  0  0  0  0  0  0  0  0
    8.1133   13.5954    2.7069 C   0  0  0  0  0  0  0  0  0  0  0  0
    8.8366   14.8536    2.4317 C   0  0  0  0  0  0  0  0  0  0  0  0
    8.2314   15.9473    2.5258 O   0  0  0  0  0  0  0  0  0  0  0  0
   10.1714   14.7687    2.0765 O   0  0  0  0  0  1  0  0  0  0  0  0
    5.2821    9.5871    6.0020 C   0  0  0  0  0  0  0  0  0  0  0  0
    4.8235    8.3198    5.4455 C   0  0  0  0  0  0  0  0  0  0  0  0
    3.5919    8.1904    4.8379 C   0  0  0  0  0  0  0  0  0  0  0  0
    3.1499    6.9946    4.3085 C   0  0  0  0  0  0  0  0  0  0  0  0
    3.9331    5.8611    4.3657 C   0  0  0  0  0  0  0  0  0  0  0  0
    3.4926    4.6885    3.8433 F   0  0  0  0  0  0  0  0  0  0  0  0
    5.1655    5.9842    4.9721 C   0  0  0  0  0  0  0  0  0  0  0  0
    5.6041    7.1845    5.5010 C   0  0  0  0  0  0  0  0  0  0  0  0
    5.0862    9.9211    7.2641 C   0  0  0  0  0  0  0  0  0  0  0  0
    4.3860    9.0239    8.1932 C   0  0  0  0  0  0  0  0  0  0  0  0
    3.2901    9.4447    8.7597 C   0  0  0  0  0  0  0  0  0  0  0  0
    2.4934    8.6892    9.6878 C   0  0  0  0  0  0  0  0  0  0  0  0
    2.8579    8.6127   10.9556 C   0  0  0  0  0  0  0  0  0  0  0  0
    4.0527    9.2800   11.4298 C   0  0  0  0  0  0  0  0  0  0  0  0
    4.3121    9.2997   12.7136 C   0  0  0  0  0  0  0  0  0  0  0  0
    3.4218    8.6645   13.6604 C   0  0  0  0  0  0  0  0  0  0  0  0
    2.6908    9.3615   14.5139 C   0  0  0  0  0  0  0  0  0  0  0  0
    2.7933   10.8059   14.4909 C   0  0  0  0  0  0  0  0  0  0  0  0
    3.5522   11.4870   15.3338 C   0  0  0  0  0  0  0  0  0  0  0  0
    4.3794   10.8714   16.3897 C   0  0  0  0  0  0  0  0  0  0  0  0
    4.0605   11.4780   17.7590 C   0  0  0  0  0  0  0  0  0  0  0  0
    4.3597   10.5184   18.8038 N   0  0  0  0  0  0  0  0  0  0  0  0
  1  2  1  0
  2  3  2  3
  3  4  1  0
  4  5  2  3
  5  6  1  0
  6  7  1  1
  6  8  1  0
  8  9  1  0
  9 10  1  6
  9 11  1  0
 11 12  1  0
 12 13  2  0
 12 14  1  0
  3 15  1  0
 15 16  1  0
 16 17  2  0
 17 18  1  0
 18 19  2  0
 19 20  1  0
 19 21  1  0
 21 22  2  0
 15 23  2  3
 23 24  1  0
 24 25  2  3
 25 26  1  0
 26 27  2  3
 27 28  1  0
 28 29  2  3
 29 30  1  0
 30 31  2  3
 31 32  1  0
 32 33  2  3
 33 34  1  0
 34 35  1  0
 35 36  1  0
 22 16  1  0
M  CHG  1  14  -1
M  END
>  <docking_score>  (1) 
-3.0750000000000002

$$$$

     RDKit          3D

 36 36  0  0  0  0  0  0  0  0999 V2000
   13.0886    0.6706   -5.9067 C   0  0  0  0  0  0  0  0  0  0  0  0
   14.0613   -0.3973   -5.5813 C   0  0  0  0  0  0  0  0  0  0  0  0
   13.6916   -1.5339   -5.0195 C   0  0  0  0  0  0  0  0  0  0  0  0
   12.2794   -1.7207   -4.7200 C   0  0  0  0  0  0  0  0  0  0  0  0
   11.5389   -0.7196   -4.2723 C   0  0  0  0  0  0  0  0  0  0  0  0
   10.0986   -0.9980   -3.9901 C   0  0  1  0  0  0  0  0  0  0  0  0
    9.8961   -0.8912   -2.6042 O   0  0  0  0  0  0  0  0  0  0  0  0
    9.2585    0.0746   -4.6330 C   0  0  0  0  0  0  0  0  0  0  0  0
    7.9181   -0.4784   -5.0738 C   0  0  1  0  0  0  0  0  0  0  0  0
    7.4178   -1.4224   -4.1847 O   0  0  0  0  0  0  0  0  0  0  0  0
    6.9532    0.6292   -5.3729 C   0  0  0  0  0  0  0  0  0  0  0  0
    6.5848    0.6495   -6.8032 C   0  0  0  0  0  0  0  0  0  0  0  0
    6.5301    1.7441   -7.4115 O   0  0  0  0  0  0  0  0  0  0  0  0
    6.3120   -0.5596   -7.4187 O   0  0  0  0  0  1  0  0  0  0  0  0
   14.6895   -2.5502   -4.7209 C   0  0  0  0  0  0  0  0  0  0  0  0
   15.8214   -2.2310   -3.8590 C   0  0  0  0  0  0  0  0  0  0  0  0
   15.6556   -1.6544   -2.6169 C   0  0  0  0  0  0  0  0  0  0  0  0
   16.7215   -1.3488   -1.7946 C   0  0  0  0  0  0  0  0  0  0  0  0
   18.0174   -1.6112   -2.1862 C   0  0  0  0  0  0  0  0  0  0  0  0
   19.0609   -1.3084   -1.3731 F   0  0  0  0  0  0  0  0  0  0  0  0
   18.1895   -2.1876   -3.4272 C   0  0  0  0  0  0  0  0  0  0  0  0
   17.1184   -2.4919   -4.2475 C   0  0  0  0  0  0  0  0  0  0  0  0
   14.5199   -3.7445   -5.2575 C   0  0  0  0  0  0  0  0  0  0  0  0
   15.4738   -4.8351   -5.0144 C   0  0  0  0  0  0  0  0  0  0  0  0
   15.1237   -6.0511   -5.3270 C   0  0  0  0  0  0  0  0  0  0  0  0
   15.9410   -7.2206   -5.1512 C   0  0  0  0  0  0  0  0  0  0  0  0
   16.8179   -7.5548   -6.0814 C   0  0  0  0  0  0  0  0  0  0  0  0
   16.9713   -6.7596   -7.2822 C   0  0  0  0  0  0  0  0  0  0  0  0
   18.1540   -6.6498   -7.8344 C   0  0  0  0  0  0  0  0  0  0  0  0
   19.3052   -7.3118   -7.2608 C   0  0  0  0  0  0  0  0  0  0  0  0
   20.1573   -6.6804   -6.4709 C   0  0  0  0  0  0  0  0  0  0  0  0
   19.9203   -5.2820   -6.1780 C   0  0  0  0  0  0  0  0  0  0  0  0
   20.0155   -4.7758   -4.9595 C   0  0  0  0  0  0  0  0  0  0  0  0
   20.3703   -5.5594   -3.7602 C   0  0  0  0  0  0  0  0  0  0  0  0
   19.2349   -6.5105   -3.3716 C   0  0  0  0  0  0  0  0  0  0  0  0
   18.1065   -5.7504   -2.8705 N   0  0  0  0  0  0  0  0  0  0  0  0
  1  2  1  0
  2  3  2  3
  3  4  1  0
  4  5  2  3
  5  6  1  0
  6  7  1  1
  6  8  1  0
  8  9  1  0
  9 10  1  1
  9 11  1  0
 11 12  1  0
 12 13  2  0
 12 14  1  0
  3 15  1  0
 15 16  1  0
 16 17  2  0
 17 18  1  0
 18 19  2  0
 19 20  1  0
 19 21  1  0
 21 22  2  0
 15 23  2  3
 23 24  1  0
 24 25  2  3
 25 26  1  0
 26 27  2  3
 27 28  1  0
 28 29  2  3
 29 30  1  0
 30 31  2  3
 31 32  1  0
 32 33  2  3
 33 34  1  0
 34 35  1  0
 35 36  1  0
 22 16  1  0
M  CHG  1  14  -1
M  END
>  <docking_score>  (2) 
-0.19700000000000001

$$$$

     RDKit          3D

 36 36  0  0  0  0  0  0  0  0999 V2000
   20.7284   -5.4845   -7.7978 C   0  0  0  0  0  0  0  0  0  0  0  0
   19.6788   -4.4633   -7.5788 C   0  0  0  0  0  0  0  0  0  0  0  0
   19.1566   -4.2404   -6.3864 C   0  0  0  0  0  0  0  0  0  0  0  0
   19.6430   -5.0346   -5.2678 C   0  0  0  0  0  0  0  0  0  0  0  0
   20.9381   -5.1370   -5.0162 C   0  0  0  0  0  0  0  0  0  0  0  0
   21.3511   -5.9721   -3.8485 C   0  0  1  0  0  0  0  0  0  0  0  0
   21.3789   -5.1493   -2.7104 O   0  0  0  0  0  0  0  0  0  0  0  0
   20.2966   -7.0187   -3.5988 C   0  0  0  0  0  0  0  0  0  0  0  0
   20.0396   -7.8378   -4.8478 C   0  0  1  0  0  0  0  0  0  0  0  0
   20.9986   -8.8257   -5.0383 O   0  0  0  0  0  0  0  0  0  0  0  0
   18.6343   -8.3593   -4.8672 C   0  0  0  0  0  0  0  0  0  0  0  0
   18.0393   -8.2506   -6.2148 C   0  0  0  0  0  0  0  0  0  0  0  0
   17.1700   -7.3753   -6.4375 O   0  0  0  0  0  0  0  0  0  0  0  0
   18.4742   -9.1335   -7.1877 O   0  0  0  0  0  1  0  0  0  0  0  0
   18.1271   -3.2241   -6.2272 C   0  0  0  0  0  0  0  0  0  0  0  0
   17.7262   -2.7937   -4.8930 C   0  0  0  0  0  0  0  0  0  0  0  0
   18.4545   -1.8702   -4.1724 C   0  0  0  0  0  0  0  0  0  0  0  0
   18.0823   -1.4572   -2.9089 C   0  0  0  0  0  0  0  0  0  0  0  0
   16.9488   -1.9584   -2.3041 C   0  0  0  0  0  0  0  0  0  0  0  0
   16.5884   -1.5482   -1.0617 F   0  0  0  0  0  0  0  0  0  0  0  0
   16.2165   -2.8822   -3.0198 C   0  0  0  0  0  0  0  0  0  0  0  0
   16.5935   -3.2929   -4.2855 C   0  0  0  0  0  0  0  0  0  0  0  0
   17.5899   -2.7261   -7.3256 C   0  0  0  0  0  0  0  0  0  0  0  0
   16.5438   -1.6962   -7.2668 C   0  0  0  0  0  0  0  0  0  0  0  0
   15.3227   -2.0624   -6.9948 C   0  0  0  0  0  0  0  0  0  0  0  0
   14.1930   -1.1783   -6.9017 C   0  0  0  0  0  0  0  0  0  0  0  0
   14.1849   -0.2162   -5.9960 C   0  0  0  0  0  0  0  0  0  0  0  0
   15.3002   -0.0355   -5.0897 C   0  0  0  0  0  0  0  0  0  0  0  0
   15.9547    1.0991   -5.0934 C   0  0  0  0  0  0  0  0  0  0  0  0
   15.5777    2.1705   -5.9892 C   0  0  0  0  0  0  0  0  0  0  0  0
   16.4651    3.0155   -6.4862 C   0  0  0  0  0  0  0  0  0  0  0  0
   17.8555    2.8536   -6.1148 C   0  0  0  0  0  0  0  0  0  0  0  0
   18.6952    3.8703   -6.0088 C   0  0  0  0  0  0  0  0  0  0  0  0
   18.3282    5.2790   -6.2517 C   0  0  0  0  0  0  0  0  0  0  0  0
   18.2047    6.0482   -4.9334 C   0  0  0  0  0  0  0  0  0  0  0  0
   19.3495    6.9216   -4.7645 N   0  0  0  0  0  0  0  0  0  0  0  0
  1  2  1  0
  2  3  2  3
  3  4  1  0
  4  5  2  3
  5  6  1  0
  6  7  1  1
  6  8  1  0
  8  9  1  0
  9 10  1  1
  9 11  1  0
 11 12  1  0
 12 13  2  0
 12 14  1  0
  3 15  1  0
 15 16  1  0
 16 17  2  0
 17 18  1  0
 18 19  2  0
 19 20  1  0
 19 21  1  0
 21 22  2  0
 15 23  2  3
 23 24  1  0
 24 25  2  3
 25 26  1  0
 26 27  2  3
 27 28  1  0
 28 29  2  3
 29 30  1  0
 30 31  2  3
 31 32  1  0
 32 33  2  3
 33 34  1  0
 34 35  1  0
 35 36  1  0
 22 16  1  0
M  CHG  1  14  -1
M  END
>  <docking_score>  (3) 
-0.156

$$$$
