
     RDKit          3D

 29 29  0  0  0  0  0  0  0  0999 V2000
   19.7590  -10.0269   -8.7399 C   0  0  0  0  0  0  0  0  0  0  0  0
   19.5891   -8.6851   -8.0578 C   0  0  0  0  0  0  0  0  0  0  0  0
   20.2247   -8.8113   -6.6704 C   0  0  0  0  0  0  0  0  0  0  0  0
   18.1226   -8.3640   -7.8228 C   0  0  0  0  0  0  0  0  0  0  0  0
   17.6181   -9.2441   -6.6855 C   0  0  0  0  0  0  0  0  0  0  0  0
   17.6169   -8.4761   -5.3774 C   0  0  0  0  0  0  0  0  0  0  0  0
   17.3636   -7.0169   -5.6456 C   0  0  1  0  0  0  0  0  0  0  0  0
   15.8910   -6.7169   -5.4626 C   0  0  0  0  0  0  0  0  0  0  0  0
   18.1025   -6.1966   -4.5895 C   0  0  0  0  0  3  0  0  0  0  0  0
   19.5412   -6.1042   -5.0054 C   0  0  0  0  0  0  0  0  0  0  0  0
   20.2424   -5.1311   -4.1100 C   0  0  0  0  0  0  0  0  0  0  0  0
   19.2884   -4.3015   -3.2746 C   0  0  1  0  0  0  0  0  0  0  0  0
   19.2198   -4.9264   -1.8956 C   0  0  0  0  0  0  0  0  0  0  0  0
   19.8278   -2.9107   -3.2124 C   0  0  0  0  0  0  0  0  0  0  0  0
   18.8446   -1.8530   -3.5833 C   0  0  1  0  0  0  0  0  0  0  0  0
   18.3430   -1.0618   -2.3942 C   0  0  0  0  0  2  0  0  0  0  0  0
   19.3550   -0.8896   -4.6277 C   0  0  0  0  0  3  0  0  0  0  0  0
   18.7984   -1.1840   -5.9974 C   0  0  0  0  0  0  0  0  0  0  0  0
   18.8245   -2.6471   -6.3300 C   0  0  0  0  0  0  0  0  0  0  0  0
   17.5653   -3.0585   -7.0497 C   0  0  0  0  0  0  0  0  0  0  0  0
   16.7810   -1.8321   -7.4239 C   0  0  0  0  0  0  0  0  0  0  0  0
   15.4863   -1.9294   -6.8708 O   0  0  0  0  0  0  0  0  0  0  0  0
   15.3837   -3.0105   -6.0144 C   0  0  0  0  0  3  0  0  0  0  0  0
   14.3110   -2.6655   -4.9914 C   0  0  0  0  0  3  0  0  0  0  0  0
   14.5482   -1.2578   -4.5062 C   0  0  1  0  0  0  0  0  0  0  0  0
   13.3067   -0.6471   -4.3233 O   0  0  0  0  0  0  0  0  0  0  0  0
   15.2180   -1.2278   -3.2171 N   0  0  0  0  0  0  0  0  0  0  0  0
   16.2772   -2.6187   -3.0034 S   0  0  0  0  0  0  0  0  0  0  0  0
   17.6336   -2.5596   -4.2028 C   0  0  0  0  0  0  0  0  0  0  0  0
  1  2  1  0
  2  3  1  0
  2  4  1  0
  4  5  1  0
  5  6  1  0
  6  7  1  0
  7  8  1  1
  7  9  1  0
  9 10  1  0
 10 11  1  0
 11 12  1  0
 12 13  1  1
 12 14  1  0
 14 15  1  0
 15 16  1  1
 15 17  1  0
 17 18  1  0
 18 19  1  0
 19 20  1  0
 20 21  1  0
 21 22  1  0
 22 23  1  0
 23 24  1  0
 24 25  1  0
 25 26  1  1
 25 27  1  0
 27 28  1  0
 28 29  1  0
 29 15  1  0
M  RAD  5   9   2  16   3  17   2  23   2  24   2
M  END
>  <docking_score>  (1) 
-3.6850000000000001

$$$$

     RDKit          3D

 29 29  0  0  0  0  0  0  0  0999 V2000
    5.6910   13.7256   10.7389 C   0  0  0  0  0  0  0  0  0  0  0  0
    5.5808   12.9024   12.0057 C   0  0  0  0  0  0  0  0  0  0  0  0
    6.9829   12.8447   12.6185 C   0  0  0  0  0  0  0  0  0  0  0  0
    5.1935   11.4650   11.7013 C   0  0  0  0  0  0  0  0  0  0  0  0
    4.6861   11.4017   10.2657 C   0  0  0  0  0  0  0  0  0  0  0  0
    3.3710   10.6487   10.1978 C   0  0  0  0  0  0  0  0  0  0  0  0
    3.6038    9.1923   10.4978 C   0  0  1  0  0  0  0  0  0  0  0  0
    2.2801    8.5174   10.7878 C   0  0  0  0  0  0  0  0  0  0  0  0
    4.1597    8.5235    9.2417 C   0  0  0  0  0  3  0  0  0  0  0  0
    3.0286    8.3645    8.2688 C   0  0  0  0  0  0  0  0  0  0  0  0
    3.3524    9.1256    7.0213 C   0  0  0  0  0  0  0  0  0  0  0  0
    4.4105    8.4495    6.1730 C   0  0  1  0  0  0  0  0  0  0  0  0
    3.7712    8.0733    4.8514 C   0  0  0  0  0  0  0  0  0  0  0  0
    5.5273    9.4208    5.9770 C   0  0  0  0  0  0  0  0  0  0  0  0
    5.2790   10.4368    4.9145 C   0  0  1  0  0  0  0  0  0  0  0  0
    5.4332    9.8843    3.5136 C   0  0  0  0  0  2  0  0  0  0  0  0
    3.9339   11.1137    5.0247 C   0  0  0  0  0  3  0  0  0  0  0  0
    4.0362   12.4945    5.6210 C   0  0  0  0  0  0  0  0  0  0  0  0
    4.9378   12.5414    6.8196 C   0  0  0  0  0  0  0  0  0  0  0  0
    5.7800   13.7917    6.8115 C   0  0  0  0  0  0  0  0  0  0  0  0
    5.2870   14.7186    5.7359 C   0  0  0  0  0  0  0  0  0  0  0  0
    6.3533   15.0122    4.8594 O   0  0  0  0  0  0  0  0  0  0  0  0
    7.4622   14.2332    5.1356 C   0  0  0  0  0  3  0  0  0  0  0  0
    8.2341   14.0829    3.8325 C   0  0  0  0  0  3  0  0  0  0  0  0
    7.2564   13.7529    2.7331 C   0  0  1  0  0  0  0  0  0  0  0  0
    7.6687   14.4117    1.5740 O   0  0  0  0  0  0  0  0  0  0  0  0
    7.2421   12.3341    2.4198 N   0  0  0  0  0  0  0  0  0  0  0  0
    7.6246   11.3536    3.8320 S   0  0  0  0  0  0  0  0  0  0  0  0
    6.3316   11.5375    5.0875 C   0  0  0  0  0  0  0  0  0  0  0  0
  1  2  1  0
  2  3  1  0
  2  4  1  0
  4  5  1  0
  5  6  1  0
  6  7  1  0
  7  8  1  6
  7  9  1  0
  9 10  1  0
 10 11  1  0
 11 12  1  0
 12 13  1  6
 12 14  1  0
 14 15  1  0
 15 16  1  6
 15 17  1  0
 17 18  1  0
 18 19  1  0
 19 20  1  0
 20 21  1  0
 21 22  1  0
 22 23  1  0
 23 24  1  0
 24 25  1  0
 25 26  1  6
 25 27  1  0
 27 28  1  0
 28 29  1  0
 29 15  1  0
M  RAD  5   9   2  16   3  17   2  23   2  24   2
M  END
>  <docking_score>  (2) 
-3.129

$$$$

     RDKit          3D

 29 29  0  0  0  0  0  0  0  0999 V2000
    4.9065   13.3362    3.1318 C   0  0  0  0  0  0  0  0  0  0  0  0
    6.3838   13.0106    3.0546 C   0  0  0  0  0  0  0  0  0  0  0  0
    6.6606   11.9564    4.1302 C   0  0  0  0  0  0  0  0  0  0  0  0
    7.2370   14.2153    3.4145 C   0  0  0  0  0  0  0  0  0  0  0  0
    6.5401   14.9748    4.5370 C   0  0  0  0  0  0  0  0  0  0  0  0
    7.1805   14.6552    5.8745 C   0  0  0  0  0  0  0  0  0  0  0  0
    6.3062   15.1617    6.9900 C   0  0  1  0  0  0  0  0  0  0  0  0
    5.8691   14.0006    7.8575 C   0  0  0  0  0  0  0  0  0  0  0  0
    7.1447   16.0733    7.8846 C   0  0  0  0  0  3  0  0  0  0  0  0
    8.5468   15.5391    7.8968 C   0  0  0  0  0  0  0  0  0  0  0  0
    9.2583   16.0744    9.1000 C   0  0  0  0  0  0  0  0  0  0  0  0
    9.2957   15.0906   10.2521 C   0  0  1  0  0  0  0  0  0  0  0  0
   10.6972   15.1084   10.8284 C   0  0  0  0  0  0  0  0  0  0  0  0
    8.2893   15.5329   11.2624 C   0  0  0  0  0  0  0  0  0  0  0  0
    7.7463   14.4339   12.1110 C   0  0  1  0  0  0  0  0  0  0  0  0
    7.0220   13.3688   11.3157 C   0  0  0  0  0  2  0  0  0  0  0  0
    8.7860   13.7685   12.9804 C   0  0  0  0  0  3  0  0  0  0  0  0
    8.7151   14.2329   14.4129 C   0  0  0  0  0  0  0  0  0  0  0  0
    8.5593   15.7206   14.5315 C   0  0  0  0  0  0  0  0  0  0  0  0
    7.5903   16.0748   15.6307 C   0  0  0  0  0  0  0  0  0  0  0  0
    7.2639   14.8412   16.4250 C   0  0  0  0  0  0  0  0  0  0  0  0
    5.8664   14.6450   16.4137 O   0  0  0  0  0  0  0  0  0  0  0  0
    5.2415   15.5189   15.5427 C   0  0  0  0  0  3  0  0  0  0  0  0
    3.9665   14.8363   15.0687 C   0  0  0  0  0  3  0  0  0  0  0  0
    4.2952   13.4114   14.7013 C   0  0  1  0  0  0  0  0  0  0  0  0
    3.2252   12.6050   15.0918 O   0  0  0  0  0  0  0  0  0  0  0  0
    4.4440   13.2355   13.2667 N   0  0  0  0  0  0  0  0  0  0  0  0
    5.0447   14.6988   12.4921 S   0  0  0  0  0  0  0  0  0  0  0  0
    6.7244   15.0629   13.0647 C   0  0  0  0  0  0  0  0  0  0  0  0
  1  2  1  0
  2  3  1  0
  2  4  1  0
  4  5  1  0
  5  6  1  0
  6  7  1  0
  7  8  1  1
  7  9  1  0
  9 10  1  0
 10 11  1  0
 11 12  1  0
 12 13  1  1
 12 14  1  0
 14 15  1  0
 15 16  1  6
 15 17  1  0
 17 18  1  0
 18 19  1  0
 19 20  1  0
 20 21  1  0
 21 22  1  0
 22 23  1  0
 23 24  1  0
 24 25  1  0
 25 26  1  6
 25 27  1  0
 27 28  1  0
 28 29  1  0
 29 15  1  0
M  RAD  5   9   2  16   3  17   2  23   2  24   2
M  END
>  <docking_score>  (3) 
-2.794

$$$$
