
     RDKit          3D

 14 14  0  0  0  0  0  0  0  0999 V2000
    6.5898   -8.3819   -6.9310 C   0  0  0  0  0  0  0  0  0  0  0  0
    5.8112   -7.7677   -7.9249 O   0  0  0  0  0  0  0  0  0  0  0  0
    6.0961   -6.4989   -7.9521 C   0  0  0  0  0  3  0  0  0  0  0  0
    5.2863   -5.6225   -8.6983 O   0  0  0  0  0  0  0  0  0  0  0  0
    4.6673   -4.7545   -7.6994 C   0  0  2  0  0  0  0  0  0  0  0  0
    3.7902   -3.8916   -8.7050 C   0  0  0  0  0  0  0  0  0  0  0  0
    5.8771   -3.6628   -7.6324 C   0  0  0  0  0  3  0  0  0  0  0  0
    5.3193   -2.3145   -7.3134 C   0  0  1  0  0  0  0  0  0  0  0  0
    5.0663   -2.0527   -5.9429 N   0  0  0  0  0  0  0  0  0  0  0  0
    6.2780   -1.9433   -5.1594 C   0  0  0  0  0  3  0  0  0  0  0  0
    7.2077   -0.8900   -5.7328 C   0  0  0  0  0  0  0  0  0  0  0  0
    6.3754    0.2951   -6.2013 C   0  0  0  0  0  2  0  0  0  0  0  0
    5.8240   -0.0672   -7.5669 C   0  0  0  0  0  0  0  0  0  0  0  0
    6.1242   -1.3664   -7.9377 O   0  0  0  0  0  0  0  0  0  0  0  0
  1  2  1  0
  2  3  1  0
  3  4  1  0
  4  5  1  0
  5  6  1  6
  5  7  1  0
  8  7  1  1
  8  9  1  0
  9 10  1  0
 10 11  1  0
 11 12  1  0
 12 13  1  0
  8 14  1  0
 14 13  1  0
M  RAD  4   3   2   7   2  10   2  12   3
M  END
>  <docking_score>  (1) 
-4.2569999999999997

$$$$

     RDKit          3D

 14 14  0  0  0  0  0  0  0  0999 V2000
   13.6995   -5.4114   -7.0786 C   0  0  0  0  0  0  0  0  0  0  0  0
   13.4341   -4.9660   -5.7738 O   0  0  0  0  0  0  0  0  0  0  0  0
   14.3905   -4.1657   -5.4045 C   0  0  0  0  0  3  0  0  0  0  0  0
   14.4464   -2.8623   -5.9324 O   0  0  0  0  0  0  0  0  0  0  0  0
   14.8594   -2.0277   -4.8067 C   0  0  2  0  0  0  0  0  0  0  0  0
   15.0458   -0.6763   -5.6217 C   0  0  0  0  0  0  0  0  0  0  0  0
   16.4421   -2.4174   -4.8624 C   0  0  0  0  0  3  0  0  0  0  0  0
   17.1068   -2.0001   -3.5917 C   0  0  1  0  0  0  0  0  0  0  0  0
   16.5266   -2.4905   -2.3944 N   0  0  0  0  0  0  0  0  0  0  0  0
   16.6953   -3.9186   -2.2328 C   0  0  0  0  0  3  0  0  0  0  0  0
   18.1599   -4.3087   -2.3052 C   0  0  0  0  0  0  0  0  0  0  0  0
   18.9835   -3.2566   -1.5764 C   0  0  0  0  0  2  0  0  0  0  0  0
   19.1684   -2.0988   -2.5384 C   0  0  0  0  0  0  0  0  0  0  0  0
   18.4666   -2.2671   -3.7193 O   0  0  0  0  0  0  0  0  0  0  0  0
  1  2  1  0
  2  3  1  0
  3  4  1  0
  4  5  1  0
  5  6  1  6
  5  7  1  0
  8  7  1  6
  8  9  1  0
  9 10  1  0
 10 11  1  0
 11 12  1  0
 12 13  1  0
  8 14  1  0
 14 13  1  0
M  RAD  4   3   2   7   2  10   2  12   3
M  END
>  <docking_score>  (2) 
-3.7530000000000001

$$$$

     RDKit          3D

 14 14  0  0  0  0  0  0  0  0999 V2000
   15.3074   -2.3599   -7.3502 C   0  0  0  0  0  0  0  0  0  0  0  0
   15.0700   -1.2839   -6.4801 O   0  0  0  0  0  0  0  0  0  0  0  0
   14.6629   -1.7542   -5.3378 C   0  0  0  0  0  3  0  0  0  0  0  0
   15.1820   -1.2202   -4.1436 O   0  0  0  0  0  0  0  0  0  0  0  0
   15.8275   -2.3533   -3.4849 C   0  0  2  0  0  0  0  0  0  0  0  0
   16.0740   -1.6504   -2.0812 C   0  0  0  0  0  0  0  0  0  0  0  0
   17.3328   -2.0494   -4.0341 C   0  0  0  0  0  3  0  0  0  0  0  0
   17.9525   -3.3159   -4.5267 C   0  0  1  0  0  0  0  0  0  0  0  0
   19.1164   -3.7481   -3.8417 N   0  0  0  0  0  0  0  0  0  0  0  0
   18.8418   -4.1881   -2.4908 C   0  0  0  0  0  3  0  0  0  0  0  0
   17.7867   -5.2785   -2.4738 C   0  0  0  0  0  0  0  0  0  0  0  0
   18.0285   -6.2124   -3.6510 C   0  0  0  0  0  2  0  0  0  0  0  0
   17.4253   -5.5456   -4.8723 C   0  0  0  0  0  0  0  0  0  0  0  0
   16.9469   -4.2745   -4.6066 O   0  0  0  0  0  0  0  0  0  0  0  0
  1  2  1  0
  2  3  1  0
  3  4  1  0
  4  5  1  0
  5  6  1  1
  5  7  1  0
  8  7  1  1
  8  9  1  0
  9 10  1  0
 10 11  1  0
 11 12  1  0
 12 13  1  0
  8 14  1  0
 14 13  1  0
M  RAD  4   3   2   7   2  10   2  12   3
M  END
>  <docking_score>  (3) 
-3.5899999999999999

$$$$
