
     RDKit          3D

 36 36  0  0  0  0  0  0  0  0999 V2000
   19.5298   -5.7625   -5.9835 C   0  0  0  0  0  0  0  0  0  0  0  0
   19.5682   -5.7439   -7.5027 C   0  0  0  0  0  0  0  0  0  0  0  0
   18.3584   -6.4078   -8.0957 C   0  0  0  0  0  0  0  0  0  0  0  0
   20.8013   -6.4853   -7.9220 C   0  0  0  0  0  0  0  0  0  0  0  0
   19.5836   -4.3523   -7.8995 N   0  0  0  0  0  0  0  0  0  0  0  0
   18.3611   -4.0440   -8.5561 C   0  0  0  0  0  0  0  0  0  0  0  0
   17.6063   -2.9041   -7.9404 C   0  0  2  0  0  0  0  0  0  0  0  0
   16.3099   -2.6056   -8.5493 C   0  0  0  0  0  3  0  0  0  0  0  0
   15.2338   -2.6369   -7.4558 C   0  0  0  0  0  0  0  0  0  0  0  0
   14.8303   -4.0356   -7.4033 N   0  0  0  0  0  0  0  0  0  0  0  0
   13.9025   -4.1618   -6.3001 C   0  0  0  0  0  0  0  0  0  0  0  0
   13.8140   -5.6248   -5.9476 C   0  0  0  0  0  0  0  0  0  0  0  0
   15.0050   -6.1240   -5.2131 C   0  0  0  0  0  0  0  0  0  0  0  0
   14.7943   -7.5155   -4.7062 C   0  0  0  0  0  0  0  0  0  0  0  0
   16.0616   -8.1793   -4.3160 C   0  0  0  0  0  0  0  0  0  0  0  0
   16.8087   -8.6520   -5.5465 C   0  0  0  0  0  0  0  0  0  0  0  0
   16.9774  -10.1310   -5.6232 C   0  0  0  0  0  0  0  0  0  0  0  0
   17.7767  -10.6137   -6.8003 C   0  0  0  0  0  0  0  0  0  0  0  0
   18.3360   -1.9649   -7.3283 O   0  0  0  0  0  0  0  0  0  0  0  0
   17.5785   -1.3269   -6.3448 C   0  0  2  0  0  0  0  0  0  0  0  0
   18.2727   -0.0188   -6.1020 C   0  0  0  0  0  0  0  0  0  0  0  0
   19.6409   -0.0360   -6.0759 C   0  0  0  0  0  0  0  0  0  0  0  0
   20.3684    1.1316   -5.8466 C   0  0  0  0  0  0  0  0  0  0  0  0
   19.7112    2.3173   -5.6419 C   0  0  0  0  0  0  0  0  0  0  0  0
   20.4089    3.4751   -5.4113 F   0  0  0  0  0  0  0  0  0  0  0  0
   18.3327    2.3106   -5.6747 C   0  0  0  0  0  0  0  0  0  0  0  0
   17.6131    1.1441   -5.9047 C   0  0  0  0  0  0  0  0  0  0  0  0
   17.6490   -2.1434   -5.1359 N   0  0  0  0  0  0  0  0  0  0  0  0
   16.4702   -2.0851   -4.3551 C   0  0  0  0  0  3  0  0  0  0  0  0
   16.7366   -1.6115   -2.9574 C   0  0  0  0  0  0  0  0  0  0  0  0
   17.7147   -2.4718   -2.3303 N   0  0  0  0  0  0  0  0  0  0  0  0
   18.8511   -1.7057   -2.0255 N   0  0  0  0  0  0  0  0  0  0  0  0
   19.9790   -2.2385   -2.7153 C   0  0  0  0  0  0  0  0  0  0  0  0
   21.2327   -1.6658   -2.2211 N   0  0  0  0  0  0  0  0  0  0  0  0
   21.3606   -1.8626   -0.8474 N   0  0  0  0  0  0  0  0  0  0  0  0
   21.2762   -0.6343   -0.2086 N   0  0  0  0  0  0  0  0  0  0  0  0
  1  2  1  0
  2  3  1  0
  2  4  1  0
  2  5  1  0
  5  6  1  0
  7  6  1  6
  7  8  1  0
  8  9  1  0
  9 10  1  0
 10 11  1  0
 11 12  1  0
 12 13  1  0
 13 14  1  0
 14 15  1  0
 15 16  1  0
 16 17  1  0
 17 18  1  0
  7 19  1  0
 19 20  1  0
 20 21  1  0
 21 22  2  0
 22 23  1  0
 23 24  2  0
 24 25  1  0
 24 26  1  0
 26 27  2  0
 20 28  1  1
 28 29  1  0
 29 30  1  0
 30 31  1  0
 31 32  1  0
 32 33  1  0
 33 34  1  0
 34 35  1  0
 35 36  1  0
 27 21  1  0
M  RAD  2   8   2  29   2
M  END
>  <docking_score>  (1) 
0.40300000000000002

$$$$

     RDKit          3D

 36 36  0  0  0  0  0  0  0  0999 V2000
   14.1166   -4.8299   -6.5745 C   0  0  0  0  0  0  0  0  0  0  0  0
   14.4975   -5.1807   -8.0033 C   0  0  0  0  0  0  0  0  0  0  0  0
   13.3595   -5.8315   -8.7364 C   0  0  0  0  0  0  0  0  0  0  0  0
   15.6543   -6.1308   -7.9309 C   0  0  0  0  0  0  0  0  0  0  0  0
   14.8301   -3.9351   -8.6608 N   0  0  0  0  0  0  0  0  0  0  0  0
   15.1598   -2.9647   -7.6759 C   0  0  0  0  0  0  0  0  0  0  0  0
   16.6311   -2.8253   -7.4224 C   0  0  2  0  0  0  0  0  0  0  0  0
   17.4841   -2.9013   -8.6085 C   0  0  0  0  0  3  0  0  0  0  0  0
   18.9010   -3.2963   -8.1711 C   0  0  0  0  0  0  0  0  0  0  0  0
   19.2875   -2.2399   -7.2456 N   0  0  0  0  0  0  0  0  0  0  0  0
   20.6122   -2.5691   -6.7654 C   0  0  0  0  0  0  0  0  0  0  0  0
   21.0972   -3.7588   -7.5538 C   0  0  0  0  0  0  0  0  0  0  0  0
   21.1082   -5.0188   -6.7668 C   0  0  0  0  0  0  0  0  0  0  0  0
   20.3656   -4.8674   -5.4771 C   0  0  0  0  0  0  0  0  0  0  0  0
   21.2696   -4.7030   -4.3132 C   0  0  0  0  0  0  0  0  0  0  0  0
   21.1353   -5.8826   -3.3718 C   0  0  0  0  0  0  0  0  0  0  0  0
   20.3663   -7.0268   -3.9384 C   0  0  0  0  0  0  0  0  0  0  0  0
   20.6431   -8.3541   -3.2910 C   0  0  0  0  0  0  0  0  0  0  0  0
   17.0661   -3.1885   -6.2107 O   0  0  0  0  0  0  0  0  0  0  0  0
   16.4941   -2.3794   -5.2277 C   0  0  2  0  0  0  0  0  0  0  0  0
   17.2996   -2.6388   -3.9884 C   0  0  0  0  0  0  0  0  0  0  0  0
   16.8512   -3.6229   -3.1496 C   0  0  0  0  0  0  0  0  0  0  0  0
   17.5315   -3.9248   -1.9702 C   0  0  0  0  0  0  0  0  0  0  0  0
   18.6656   -3.2296   -1.6383 C   0  0  0  0  0  0  0  0  0  0  0  0
   19.3464   -3.5095   -0.4812 F   0  0  0  0  0  0  0  0  0  0  0  0
   19.0996   -2.2441   -2.4996 C   0  0  0  0  0  0  0  0  0  0  0  0
   18.4179   -1.9484   -3.6741 C   0  0  0  0  0  0  0  0  0  0  0  0
   15.1243   -2.8412   -5.0195 N   0  0  0  0  0  0  0  0  0  0  0  0
   14.2367   -1.8028   -4.6500 C   0  0  0  0  0  3  0  0  0  0  0  0
   14.2020   -0.6971   -5.6625 C   0  0  0  0  0  0  0  0  0  0  0  0
   14.5389    0.5564   -5.0258 N   0  0  0  0  0  0  0  0  0  0  0  0
   13.9855    0.5633   -3.7355 N   0  0  0  0  0  0  0  0  0  0  0  0
   12.5725    0.7272   -3.8283 C   0  0  0  0  0  0  0  0  0  0  0  0
   11.8772   -0.5609   -3.7912 N   0  0  0  0  0  0  0  0  0  0  0  0
   10.5863   -0.4136   -3.2873 N   0  0  0  0  0  0  0  0  0  0  0  0
    9.6775   -0.7914   -4.2647 N   0  0  0  0  0  0  0  0  0  0  0  0
  1  2  1  0
  2  3  1  0
  2  4  1  0
  2  5  1  0
  5  6  1  0
  7  6  1  6
  7  8  1  0
  8  9  1  0
  9 10  1  0
 10 11  1  0
 11 12  1  0
 12 13  1  0
 13 14  1  0
 14 15  1  0
 15 16  1  0
 16 17  1  0
 17 18  1  0
  7 19  1  0
 19 20  1  0
 20 21  1  0
 21 22  2  0
 22 23  1  0
 23 24  2  0
 24 25  1  0
 24 26  1  0
 26 27  2  0
 20 28  1  1
 28 29  1  0
 29 30  1  0
 30 31  1  0
 31 32  1  0
 32 33  1  0
 33 34  1  0
 34 35  1  0
 35 36  1  0
 27 21  1  0
M  RAD  2   8   2  29   2
M  END
>  <docking_score>  (2) 
0.84199999999999997

$$$$

     RDKit          3D

 36 36  0  0  0  0  0  0  0  0999 V2000
   21.3557   -0.1227   -7.2397 C   0  0  0  0  0  0  0  0  0  0  0  0
   20.7211   -0.4419   -5.8961 C   0  0  0  0  0  0  0  0  0  0  0  0
   21.3791    0.3158   -4.7785 C   0  0  0  0  0  0  0  0  0  0  0  0
   20.8875   -1.9138   -5.6682 C   0  0  0  0  0  0  0  0  0  0  0  0
   19.3345   -0.0376   -5.9865 N   0  0  0  0  0  0  0  0  0  0  0  0
   18.5218   -1.0285   -5.3717 C   0  0  0  0  0  0  0  0  0  0  0  0
   17.1410   -1.1312   -5.9474 C   0  0  2  0  0  0  0  0  0  0  0  0
   16.1767   -0.1504   -5.4489 C   0  0  0  0  0  3  0  0  0  0  0  0
   14.7823   -0.5225   -5.9704 C   0  0  0  0  0  0  0  0  0  0  0  0
   13.9207    0.5263   -5.4414 N   0  0  0  0  0  0  0  0  0  0  0  0
   12.5632    0.0320   -5.5215 C   0  0  0  0  0  0  0  0  0  0  0  0
   12.4709   -1.1844   -4.6360 C   0  0  0  0  0  0  0  0  0  0  0  0
   11.1067   -1.4130   -4.0940 C   0  0  0  0  0  0  0  0  0  0  0  0
   10.1454   -0.3696   -4.5682 C   0  0  0  0  0  0  0  0  0  0  0  0
    8.7783   -0.5646   -4.0279 C   0  0  0  0  0  0  0  0  0  0  0  0
    7.8534   -1.0827   -5.1104 C   0  0  0  0  0  0  0  0  0  0  0  0
    6.7189   -0.1696   -5.4276 C   0  0  0  0  0  0  0  0  0  0  0  0
    6.9099    0.6676   -6.6606 C   0  0  0  0  0  0  0  0  0  0  0  0
   16.7643   -2.3373   -6.3863 O   0  0  0  0  0  0  0  0  0  0  0  0
   15.9049   -2.9410   -5.4670 C   0  0  2  0  0  0  0  0  0  0  0  0
   16.7606   -3.2485   -4.2733 C   0  0  0  0  0  0  0  0  0  0  0  0
   16.3541   -2.7409   -3.0691 C   0  0  0  0  0  0  0  0  0  0  0  0
   17.0937   -2.9681   -1.9087 C   0  0  0  0  0  0  0  0  0  0  0  0
   18.2463   -3.7083   -1.9668 C   0  0  0  0  0  0  0  0  0  0  0  0
   18.9889   -3.9396   -0.8374 F   0  0  0  0  0  0  0  0  0  0  0  0
   18.6350   -4.2112   -3.1905 C   0  0  0  0  0  0  0  0  0  0  0  0
   17.8933   -3.9823   -4.3433 C   0  0  0  0  0  0  0  0  0  0  0  0
   15.4340   -4.1903   -6.0592 N   0  0  0  0  0  0  0  0  0  0  0  0
   14.4403   -4.8340   -5.2841 C   0  0  0  0  0  3  0  0  0  0  0  0
   14.4563   -6.3230   -5.4617 C   0  0  0  0  0  0  0  0  0  0  0  0
   15.5319   -6.8943   -4.6829 N   0  0  0  0  0  0  0  0  0  0  0  0
   16.7194   -6.7978   -5.4256 N   0  0  0  0  0  0  0  0  0  0  0  0
   16.9900   -8.0510   -6.0488 C   0  0  0  0  0  0  0  0  0  0  0  0
   17.6574   -8.9761   -5.1307 N   0  0  0  0  0  0  0  0  0  0  0  0
   17.0626  -10.2355   -5.1760 N   0  0  0  0  0  0  0  0  0  0  0  0
   16.9094  -10.6118   -6.5022 N   0  0  0  0  0  0  0  0  0  0  0  0
  1  2  1  0
  2  3  1  0
  2  4  1  0
  2  5  1  0
  5  6  1  0
  7  6  1  1
  7  8  1  0
  8  9  1  0
  9 10  1  0
 10 11  1  0
 11 12  1  0
 12 13  1  0
 13 14  1  0
 14 15  1  0
 15 16  1  0
 16 17  1  0
 17 18  1  0
  7 19  1  0
 19 20  1  0
 20 21  1  0
 21 22  2  0
 22 23  1  0
 23 24  2  0
 24 25  1  0
 24 26  1  0
 26 27  2  0
 20 28  1  6
 28 29  1  0
 29 30  1  0
 30 31  1  0
 31 32  1  0
 32 33  1  0
 33 34  1  0
 34 35  1  0
 35 36  1  0
 27 21  1  0
M  RAD  2   8   2  29   2
M  END
>  <docking_score>  (3) 
1.3480000000000001

$$$$
