
     RDKit          3D

 79 81  0  0  0  0  0  0  0  0999 V2000
   16.1963    5.9281   -4.1902 C   0  0  0  0  0  0  0  0  0  0  0  0
   17.0032    4.8081   -3.6032 C   0  0  0  0  0  3  0  0  0  0  0  0
   18.0980    4.1711   -4.4068 C   0  0  0  0  0  0  0  0  0  0  0  0
   17.8115    2.9495   -5.2287 C   0  0  0  0  0  0  0  0  0  0  0  0
   16.4302    2.3649   -5.2470 O   0  0  0  0  0  0  0  0  0  0  0  0
   18.9062    2.3125   -6.0323 C   0  0  0  0  0  0  0  0  0  0  0  0
   18.6197    1.0909   -6.8542 O   0  0  0  0  0  0  0  0  0  0  0  0
   20.2874    2.8971   -6.0139 C   0  0  0  0  0  0  0  0  0  0  0  0
   21.3823    2.2601   -6.8175 O   0  0  0  0  0  0  0  0  0  0  0  0
   20.5740    4.1187   -5.1920 O   0  0  0  0  0  0  0  0  0  0  0  0
   19.4792    4.7558   -4.3884 C   0  0  0  0  0  0  0  0  0  0  0  0
   19.7658    5.9774   -3.5665 C   0  0  0  0  0  3  0  0  0  0  0  0
   19.1739    7.2994   -3.9565 C   0  0  0  0  0  0  0  0  0  0  0  0
   17.8057    7.3573   -4.5685 C   0  0  0  0  0  3  0  0  0  0  0  0
   17.3340    6.2450   -5.4574 O   0  0  0  0  0  0  0  0  0  0  0  0
   16.9090    8.5275   -4.2915 C   0  0  0  0  0  0  0  0  0  0  0  0
   16.4588    9.4104   -5.4175 O   0  0  0  0  0  0  0  0  0  0  0  0
   16.4625    8.8148   -2.8886 C   0  0  0  0  0  0  0  0  0  0  0  0
   17.2883    9.7030   -2.0058 O   0  0  0  0  0  0  0  0  0  0  0  0
   15.1904    8.2139   -2.3685 C   0  0  0  0  0  0  0  0  0  0  0  0
   13.9327    9.0308   -2.3377 O   0  0  0  0  0  0  0  0  0  0  0  0
   15.1758    6.7960   -1.8793 C   0  0  0  0  0  3  0  0  0  0  0  0
   13.9313    6.2274   -1.2647 C   0  0  0  0  0  0  0  0  0  0  0  0
   12.7191    5.9840   -2.1140 C   0  0  0  0  0  3  0  0  0  0  0  0
   11.5435    5.2437   -1.5485 O   0  0  0  0  0  0  0  0  0  0  0  0
   11.7556    4.1755   -0.5169 O   0  0  0  0  0  0  0  0  0  0  0  0
   10.7959    4.0370    0.6275 O   0  0  0  0  0  0  0  0  0  0  0  0
    9.3464    4.3722    0.4356 C   0  0  0  0  0  0  0  0  0  0  0  0
    8.9036    3.9661   -0.9388 O   0  0  0  0  0  0  0  0  0  0  0  0
    8.7979    5.0075    1.6788 C   0  0  0  0  0  3  0  0  0  0  0  0
    7.5146    5.5749    2.2090 O   0  0  0  0  0  0  0  0  0  0  0  0
    6.0969    5.8087    1.7782 C   0  0  0  0  0  0  0  0  0  0  0  0
    5.2083    5.5997    0.5879 C   0  0  0  0  0  3  0  0  0  0  0  0
    5.2645    5.0455   -0.8049 C   0  0  0  0  0  3  0  0  0  0  0  0
    3.9217    5.1710   -1.4615 O   0  0  0  0  0  0  0  0  0  0  0  0
    6.2393    4.4056   -1.7484 N   0  0  0  0  0  0  0  0  0  0  0  0
    7.6764    3.9793   -1.8012 C   0  0  0  0  0  0  0  0  0  0  0  0
    7.9835    3.3753   -3.1395 C   0  0  0  0  0  3  0  0  0  0  0  0
    8.7538    2.0910   -3.2238 O   0  0  0  0  0  0  0  0  0  0  0  0
    9.1301    1.5286   -4.5625 O   0  0  0  0  0  0  0  0  0  0  0  0
   10.4615    0.8633   -4.7491 N   0  0  0  0  0  0  0  0  0  0  0  0
   10.6980   -0.5100   -4.1940 C   0  0  0  0  0  3  0  0  0  0  0  0
   11.7767   -0.7318   -3.1756 C   0  0  0  0  0  0  0  0  0  0  0  0
   13.2185   -0.6760   -3.5859 C   0  0  0  0  0  0  0  0  0  0  0  0
   14.2854   -0.4732   -2.5513 O   0  0  0  0  0  0  0  0  0  0  0  0
   13.5932   -0.8232   -5.0309 C   0  0  0  0  0  0  0  0  0  0  0  0
   14.2854    0.3001   -5.7443 O   0  0  0  0  0  0  0  0  0  0  0  0
   13.2756   -2.0936   -5.7624 C   0  0  0  0  0  0  0  0  0  0  0  0
   11.8249   -2.4632   -5.6678 C   0  0  0  0  0  0  0  0  0  0  0  0
   10.9809   -3.5886   -6.1885 O   0  0  0  0  0  0  0  0  0  0  0  0
   11.2381   -4.8106   -7.0195 C   0  0  0  0  0  0  0  0  0  0  0  0
    9.9963   -5.6197   -7.2501 O   0  0  0  0  0  0  0  0  0  0  0  0
   12.4457   -5.4134   -7.6740 C   0  0  0  0  0  0  0  0  0  0  0  0
   13.8965   -5.0438   -7.7686 O   0  0  0  0  0  0  0  0  0  0  0  0
   14.7404   -3.9184   -7.2479 O   0  0  0  0  0  0  0  0  0  0  0  0
   14.4832   -2.6964   -6.4169 C   0  0  0  0  0  0  0  0  0  0  0  0
   15.7250   -1.8873   -6.1862 C   0  0  0  0  0  3  0  0  0  0  0  0
   15.9685   -1.2518   -4.8494 O   0  0  0  0  0  0  0  0  0  0  0  0
   17.1446   -1.6760   -4.0205 C   0  0  0  0  0  3  0  0  0  0  0  0
   18.5348   -1.3095   -4.4483 O   0  0  0  0  0  0  0  0  0  0  0  0
   19.1689   -2.0074   -5.6148 C   0  0  0  0  0  0  0  0  0  0  0  0
   20.3443   -1.3880   -6.3110 N   0  0  0  0  0  0  0  0  0  0  0  0
   18.6275   -3.3249   -6.0852 C   0  0  0  0  0  3  0  0  0  0  0  0
   18.8130   -3.7452   -7.5131 O   0  0  0  0  0  0  0  0  0  0  0  0
   18.5812   -5.1729   -7.9109 C   0  0  0  0  0  0  0  0  0  0  0  0
   19.2092   -6.2828   -7.1211 C   0  0  0  0  0  0  0  0  0  0  0  0
   19.4550   -7.6153   -7.7648 O   0  0  0  0  0  0  0  0  0  0  0  0
   19.5913   -6.0604   -5.6877 O   0  0  0  0  0  0  0  0  0  0  0  0
   19.6730   -7.2238   -4.7443 C   0  0  0  0  0  3  0  0  0  0  0  0
   19.5962   -6.9954   -3.2638 C   0  0  0  0  0  0  0  0  0  0  0  0
   18.6019   -6.0206   -2.7059 O   0  0  0  0  0  0  0  0  0  0  0  0
   17.1354   -6.3310   -2.7607 C   0  0  0  0  0  0  0  0  0  0  0  0
   16.5057   -6.7510   -4.0558 O   0  0  0  0  0  0  0  0  0  0  0  0
   16.2986   -6.2215   -1.5207 C   0  0  0  0  0  3  0  0  0  0  0  0
   16.1964   -4.9109   -0.7982 N   0  0  0  0  0  0  0  0  0  0  0  0
   16.8476   -3.6866   -1.3698 C   0  0  0  0  0  0  0  0  0  0  0  0
   18.1380   -3.8066   -2.1251 C   0  0  0  0  0  0  0  0  0  0  0  0
   16.2085   -2.3420   -1.1861 C   0  0  0  0  0  3  0  0  0  0  0  0
   17.0449   -1.1618   -0.7895 C   0  0  0  0  0  2  0  0  0  0  0  0
  1  2  1  0
  2  3  1  0
  3  4  1  0
  4  5  1  0
  4  6  1  0
  6  7  1  0
  6  8  1  0
  8  9  1  0
  8 10  1  0
 10 11  1  0
 11 12  1  0
 12 13  1  0
 13 14  1  0
 14 15  1  0
 14 16  1  0
 16 17  1  0
 16 18  1  0
 18 19  1  0
 18 20  1  0
 20 21  1  0
 20 22  1  0
 22 23  1  0
 23 24  1  0
 24 25  1  0
 25 26  1  0
 26 27  1  0
 28 27  1  0
 28 29  1  0
 28 30  1  0
 30 31  1  0
 31 32  1  0
 32 33  1  0
 33 34  1  0
 34 35  1  0
 34 36  1  0
 36 37  1  0
 37 38  1  0
 38 39  1  0
 39 40  1  0
 40 41  1  0
 41 42  1  0
 42 43  1  0
 43 44  1  0
 44 45  1  0
 44 46  1  0
 46 47  1  0
 46 48  1  0
 48 49  1  0
 49 50  1  0
 50 51  1  0
 51 52  1  0
 51 53  1  0
 53 54  1  0
 54 55  1  0
 55 56  1  0
 56 57  1  0
 57 58  1  0
 58 59  1  0
 59 60  1  0
 60 61  1  0
 61 62  1  0
 61 63  1  0
 63 64  1  0
 64 65  1  0
 65 66  1  0
 66 67  1  0
 66 68  1  0
 68 69  1  0
 69 70  1  0
 70 71  1  0
 71 72  1  0
 72 73  1  0
 72 74  1  0
 74 75  1  0
 75 76  1  0
 76 77  1  0
 76 78  1  0
 78 79  1  0
 11  3  1  0
 37 29  1  0
 56 48  1  0
M  RAD  8   2   2  12   2  14   2  22   2  24   2  30   2  33   2  34   2
M  RAD  8  38   2  42   2  57   2  59   2  63   2  69   2  74   2  78   2
M  RAD  1  79   3
M  END
>  <docking_score>  (1) 
72.528000000000006

$$$$
