
     RDKit          3D

  9  9  0  0  0  0  0  0  0  0999 V2000
    5.7491   -1.9064   -7.3286 C   0  0  0  0  0  0  0  0  0  0  0  0
    5.4812   -1.4587   -6.0437 O   0  0  0  0  0  0  0  0  0  0  0  0
    6.6880   -1.3353   -5.3801 C   0  0  0  0  0  3  0  0  0  0  0  0
    7.2256   -0.0737   -5.4680 O   0  0  0  0  0  0  0  0  0  0  0  0
    6.3315    0.9132   -5.8089 C   0  0  0  0  0  0  0  0  0  0  0  0
    6.7244    2.2248   -5.1171 C   0  0  0  0  0  0  0  0  0  0  0  0
    6.3657    1.2068   -7.1881 O   0  0  0  0  0  0  0  0  0  0  0  0
    5.6848    0.2593   -7.9352 C   0  0  0  0  0  3  0  0  0  0  0  0
    6.4741   -0.8909   -7.9657 O   0  0  0  0  0  0  0  0  0  0  0  0
  1  2  1  0
  2  3  1  0
  3  4  1  0
  4  5  1  0
  5  6  1  0
  5  7  1  0
  7  8  1  0
  8  9  1  0
  9  1  1  0
M  RAD  2   3   2   8   2
M  END
>  <docking_score>  (1) 
-4.4000000000000004

$$$$

     RDKit          3D

  9  9  0  0  0  0  0  0  0  0999 V2000
    5.0422   -4.1752   -6.8164 C   0  0  0  0  0  0  0  0  0  0  0  0
    5.8170   -3.7340   -7.8786 O   0  0  0  0  0  0  0  0  0  0  0  0
    4.9923   -3.0341   -8.7399 C   0  0  0  0  0  3  0  0  0  0  0  0
    4.9685   -1.6837   -8.4862 O   0  0  0  0  0  0  0  0  0  0  0  0
    6.0289   -1.2157   -7.7473 C   0  0  0  0  0  0  0  0  0  0  0  0
    6.3761    0.2108   -8.1920 C   0  0  0  0  0  0  0  0  0  0  0  0
    5.7117   -1.1009   -6.3777 O   0  0  0  0  0  0  0  0  0  0  0  0
    5.7390   -2.3286   -5.7362 C   0  0  0  0  0  3  0  0  0  0  0  0
    4.6024   -3.0318   -6.1368 O   0  0  0  0  0  0  0  0  0  0  0  0
  1  2  1  0
  2  3  1  0
  3  4  1  0
  4  5  1  0
  5  6  1  0
  5  7  1  0
  7  8  1  0
  8  9  1  0
  9  1  1  0
M  RAD  2   3   2   8   2
M  END
>  <docking_score>  (2) 
-3.6800000000000002

$$$$

     RDKit          3D

  9  9  0  0  0  0  0  0  0  0999 V2000
    7.7668   -0.0691   19.3838 C   0  0  0  0  0  0  0  0  0  0  0  0
    7.0963    0.6637   18.4160 O   0  0  0  0  0  0  0  0  0  0  0  0
    5.8559    0.0816   18.2306 C   0  0  0  0  0  3  0  0  0  0  0  0
    4.8751    0.6399   19.0147 O   0  0  0  0  0  0  0  0  0  0  0  0
    5.1693    1.8896   19.5059 C   0  0  0  0  0  0  0  0  0  0  0  0
    3.8824    2.7181   19.6086 C   0  0  0  0  0  0  0  0  0  0  0  0
    5.6723    1.8373   20.8227 O   0  0  0  0  0  0  0  0  0  0  0  0
    7.0036    1.4549   20.8525 C   0  0  0  0  0  3  0  0  0  0  0  0
    7.0492    0.0879   20.5767 O   0  0  0  0  0  0  0  0  0  0  0  0
  1  2  1  0
  2  3  1  0
  3  4  1  0
  4  5  1  0
  5  6  1  0
  5  7  1  0
  7  8  1  0
  8  9  1  0
  9  1  1  0
M  RAD  2   3   2   8   2
M  END
>  <docking_score>  (3) 
-3.5979999999999999

$$$$
