
     RDKit          3D

 18 17  0  0  0  0  0  0  0  0999 V2000
    6.1794    0.9392   26.6932 C   0  0  0  0  0  0  0  0  0  0  0  0
    7.2575    1.6960   26.0061 C   0  0  0  0  0  0  0  0  0  0  0  0
    7.8251    2.7098   26.5342 O   0  0  0  0  0  0  0  0  0  0  0  0
    7.6354    1.2242   24.7282 N   0  0  0  0  0  0  0  0  0  0  0  0
    8.6327    1.7676   23.8859 C   0  0  0  0  0  3  0  0  0  0  0  0
    9.0949    0.7800   22.8413 C   0  0  1  0  0  0  0  0  0  0  0  0
    7.9345    0.4582   21.9157 C   0  0  0  0  0  3  0  0  0  0  0  0
    7.8451   -1.0326   21.8157 C   0  0  1  0  0  0  0  0  0  0  0  0
    8.3951   -1.5541   20.5307 C   0  0  0  0  0  0  0  0  0  0  0  0
    8.3632   -1.6993   23.0264 C   0  0  0  0  0  0  0  0  0  0  0  0
    7.4576   -2.8177   23.4692 C   0  0  0  0  0  0  0  0  0  0  0  0
    7.0249   -2.6662   24.8997 C   0  0  0  0  0  3  0  0  0  0  0  0
    5.9754   -3.6440   25.2954 C   0  0  0  0  0  3  0  0  0  0  0  0
    6.5241   -4.8318   25.7736 O   0  0  0  0  0  0  0  0  0  0  0  0
   10.3071    1.3084   22.0789 C   0  0  0  0  0  3  0  0  0  0  0  0
   11.5339    0.4837   22.3432 C   0  0  0  0  0  3  0  0  0  0  0  0
   12.5106    1.3574   23.0804 C   0  0  0  0  0  0  0  0  0  0  0  0
   12.2831    2.5393   23.2592 O   0  0  0  0  0  0  0  0  0  0  0  0
  1  2  1  0
  2  3  2  0
  2  4  1  0
  4  5  1  0
  6  5  1  1
  6  7  1  0
  7  8  1  0
  8  9  1  6
  8 10  1  0
 10 11  1  0
 11 12  1  0
 12 13  1  0
 13 14  1  0
  6 15  1  0
 15 16  1  0
 16 17  1  0
 17 18  2  0
M  RAD  6   5   2   7   2  12   2  13   2  15   2  16   2
M  END
>  <docking_score>  (1) 
-4.1130000000000004

$$$$

     RDKit          3D

 18 17  0  0  0  0  0  0  0  0999 V2000
   11.0408    5.2112   20.0778 C   0  0  0  0  0  0  0  0  0  0  0  0
   10.0091    4.8187   21.0720 C   0  0  0  0  0  0  0  0  0  0  0  0
    8.8467    5.3453   21.0959 O   0  0  0  0  0  0  0  0  0  0  0  0
   10.3799    3.8129   21.9936 N   0  0  0  0  0  0  0  0  0  0  0  0
    9.5767    3.2700   23.0230 C   0  0  0  0  0  3  0  0  0  0  0  0
    9.4229    1.7734   22.8948 C   0  0  1  0  0  0  0  0  0  0  0  0
    7.9534    1.4130   23.0278 C   0  0  0  0  0  3  0  0  0  0  0  0
    7.7966    0.6478   24.3046 C   0  0  1  0  0  0  0  0  0  0  0  0
    7.0822    1.4288   25.3560 C   0  0  0  0  0  0  0  0  0  0  0  0
    7.2643   -0.7094   24.0732 C   0  0  0  0  0  0  0  0  0  0  0  0
    6.2964   -1.1128   25.1537 C   0  0  0  0  0  0  0  0  0  0  0  0
    6.5142   -2.5263   25.6130 C   0  0  0  0  0  3  0  0  0  0  0  0
    6.2855   -3.5281   24.5368 C   0  0  0  0  0  3  0  0  0  0  0  0
    5.3492   -4.4894   24.9106 O   0  0  0  0  0  0  0  0  0  0  0  0
   10.0214    1.2663   21.5853 C   0  0  0  0  0  3  0  0  0  0  0  0
    8.9857    0.6139   20.7155 C   0  0  0  0  0  3  0  0  0  0  0  0
    9.4409    0.7608   19.2900 C   0  0  0  0  0  0  0  0  0  0  0  0
    8.8184    1.4469   18.5010 O   0  0  0  0  0  0  0  0  0  0  0  0
  1  2  1  0
  2  3  2  0
  2  4  1  0
  4  5  1  0
  6  5  1  6
  6  7  1  0
  7  8  1  0
  8  9  1  1
  8 10  1  0
 10 11  1  0
 11 12  1  0
 12 13  1  0
 13 14  1  0
  6 15  1  0
 15 16  1  0
 16 17  1  0
 17 18  2  0
M  RAD  6   5   2   7   2  12   2  13   2  15   2  16   2
M  END
>  <docking_score>  (2) 
-4.0529999999999999

$$$$

     RDKit          3D

 18 17  0  0  0  0  0  0  0  0999 V2000
    5.8956    1.7250   26.7638 C   0  0  0  0  0  0  0  0  0  0  0  0
    5.8848    0.9429   25.5008 C   0  0  0  0  0  0  0  0  0  0  0  0
    4.8267    0.7802   24.8060 O   0  0  0  0  0  0  0  0  0  0  0  0
    7.1221    0.3915   25.0966 N   0  0  0  0  0  0  0  0  0  0  0  0
    7.3666   -0.3808   23.9377 C   0  0  0  0  0  3  0  0  0  0  0  0
    8.3688    0.2751   23.0181 C   0  0  1  0  0  0  0  0  0  0  0  0
    7.7501    0.4288   21.6396 C   0  0  0  0  0  3  0  0  0  0  0  0
    8.2811   -0.6810   20.7871 C   0  0  1  0  0  0  0  0  0  0  0  0
    7.7066   -0.6703   19.4102 C   0  0  0  0  0  0  0  0  0  0  0  0
    9.7538   -0.7635   20.8424 C   0  0  0  0  0  0  0  0  0  0  0  0
   10.2223   -2.1918   20.9294 C   0  0  0  0  0  0  0  0  0  0  0  0
    9.1590   -3.1069   21.4667 C   0  0  0  0  0  3  0  0  0  0  0  0
    9.6850   -4.4445   21.8520 C   0  0  0  0  0  3  0  0  0  0  0  0
    9.2454   -5.4453   20.9886 O   0  0  0  0  0  0  0  0  0  0  0  0
    8.8475    1.6096   23.5839 C   0  0  0  0  0  3  0  0  0  0  0  0
    9.3233    2.5348   22.5010 C   0  0  0  0  0  3  0  0  0  0  0  0
   10.8266    2.5246   22.5319 C   0  0  0  0  0  0  0  0  0  0  0  0
   11.4606    3.5631   22.5192 O   0  0  0  0  0  0  0  0  0  0  0  0
  1  2  1  0
  2  3  2  0
  2  4  1  0
  4  5  1  0
  6  5  1  1
  6  7  1  0
  7  8  1  0
  8  9  1  6
  8 10  1  0
 10 11  1  0
 11 12  1  0
 12 13  1  0
 13 14  1  0
  6 15  1  0
 15 16  1  0
 16 17  1  0
 17 18  2  0
M  RAD  6   5   2   7   2  12   2  13   2  15   2  16   2
M  END
>  <docking_score>  (3) 
-3.839

$$$$
