
     RDKit          3D

 28 29  0  0  0  0  0  0  0  0999 V2000
   18.9434   -3.5141   -6.5632 C   0  0  0  0  0  0  0  0  0  0  0  0
   19.0946   -2.0742   -6.2401 C   0  0  2  0  0  0  0  0  0  0  0  0
   20.0791   -1.7507   -5.1825 C   0  0  0  0  0  0  0  0  0  0  0  0
   17.8076   -1.3139   -6.1387 C   0  0  0  0  0  0  0  0  0  0  0  0
   16.7735   -1.8692   -7.0739 C   0  0  0  0  0  0  0  0  0  0  0  0
   15.3860   -1.8484   -6.5222 C   0  0  0  0  0  3  0  0  0  0  0  0
   15.2285   -1.0221   -5.2853 C   0  0  1  0  0  0  0  0  0  0  0  0
   13.8820   -0.3192   -5.3364 C   0  0  0  0  0  0  0  0  0  0  0  0
   15.2029   -1.9138   -4.0548 C   0  0  0  0  0  3  0  0  0  0  0  0
   15.4337   -1.0598   -2.8249 C   0  0  0  0  0  0  0  0  0  0  0  0
   16.6948   -1.5784   -2.1580 C   0  0  0  0  0  0  0  0  0  0  0  0
   17.5810   -2.1275   -3.2311 C   0  0  2  0  0  0  0  0  0  0  0  0
   17.2273   -3.5336   -3.6281 C   0  0  0  0  0  0  0  0  0  0  0  0
   16.6793   -4.3473   -2.4759 C   0  0  0  0  0  0  0  0  0  0  0  0
   16.0260   -5.5964   -3.0128 C   0  0  0  0  0  0  0  0  0  0  0  0
   19.0264   -1.9309   -2.9150 C   0  0  1  0  0  0  0  0  0  0  0  0
   19.3957   -2.2183   -1.5009 C   0  0  0  0  0  0  0  0  0  0  0  0
   19.9706   -2.4678   -3.9180 C   0  0  1  0  0  0  0  0  0  0  0  0
   20.5070   -3.6578   -3.7286 O   0  0  0  0  0  0  0  0  0  0  0  0
   19.6562   -4.7128   -3.6753 C   0  0  0  0  0  0  0  0  0  0  0  0
   20.1671   -5.9117   -3.9528 O   0  0  0  0  0  0  0  0  0  0  0  0
   19.4767   -7.0575   -3.9229 C   0  0  0  0  0  0  0  0  0  0  0  0
   19.5454   -7.9756   -5.3650 S   0  0  1  0  0  0  0  0  0  0  0  0
   17.1780   -7.7613   -5.7726 C   0  0  0  0  0  0  0  0  0  0  0  0
   18.5934   -8.1286   -6.5744 C   0  0  1  0  0  0  0  0  0  0  0  0
   18.5778   -7.3850   -7.7540 O   0  0  0  0  0  0  0  0  0  0  0  0
   18.1943   -8.1656   -8.7300 O   0  0  0  0  0  0  0  0  0  0  0  0
   18.6743   -9.3726   -8.5403 O   0  0  0  0  0  0  0  0  0  0  0  0
  2  1  1  1
  2  3  1  0
  2  4  1  0
  4  5  1  0
  5  6  1  0
  6  7  1  0
  7  8  1  6
  7  9  1  0
  9 10  1  0
 10 11  1  0
 11 12  1  0
 12 13  1  1
 13 14  1  0
 14 15  1  0
 12 16  1  0
 16 17  1  1
 16 18  1  0
 18 19  1  6
 19 20  1  0
 20 21  1  0
 21 22  1  0
 23 22  1  6
 23 24  1  0
 24 25  1  0
 25 26  1  6
 26 27  1  0
 27 28  1  0
 18  3  1  0
 25 23  1  0
M  RAD  2   6   2   9   2
M  END
>  <docking_score>  (1) 
-4.5389999999999997

$$$$

     RDKit          3D

 28 29  0  0  0  0  0  0  0  0999 V2000
    6.5152   14.5690    7.3907 C   0  0  0  0  0  0  0  0  0  0  0  0
    5.7514   15.4084    6.4355 C   0  0  2  0  0  0  0  0  0  0  0  0
    4.2803   15.2436    6.4657 C   0  0  0  0  0  0  0  0  0  0  0  0
    6.3357   15.4840    5.0579 C   0  0  0  0  0  0  0  0  0  0  0  0
    7.8332   15.3927    5.0972 C   0  0  0  0  0  0  0  0  0  0  0  0
    8.4226   14.6296    3.9570 C   0  0  0  0  0  3  0  0  0  0  0  0
    7.4650   14.3538    2.8414 C   0  0  1  0  0  0  0  0  0  0  0  0
    8.2079   14.4705    1.5208 C   0  0  0  0  0  0  0  0  0  0  0  0
    6.9555   12.9243    2.9246 C   0  0  0  0  0  3  0  0  0  0  0  0
    5.7262   12.7896    2.0495 C   0  0  0  0  0  0  0  0  0  0  0  0
    4.5820   12.3753    2.9568 C   0  0  0  0  0  0  0  0  0  0  0  0
    4.8438   12.9578    4.3098 C   0  0  2  0  0  0  0  0  0  0  0  0
    5.7850   12.1288    5.1384 C   0  0  0  0  0  0  0  0  0  0  0  0
    5.3842   10.6708    5.1978 C   0  0  0  0  0  0  0  0  0  0  0  0
    6.6241    9.8116    5.1985 C   0  0  0  0  0  0  0  0  0  0  0  0
    3.5793   13.3256    5.0122 C   0  0  1  0  0  0  0  0  0  0  0  0
    2.4894   12.3174    4.8942 C   0  0  0  0  0  0  0  0  0  0  0  0
    3.7514   13.8886    6.3684 C   0  0  1  0  0  0  0  0  0  0  0  0
    3.6282   13.0978    7.4168 O   0  0  0  0  0  0  0  0  0  0  0  0
    2.8273   13.5316    8.4218 C   0  0  0  0  0  0  0  0  0  0  0  0
    2.4010   12.6145    9.2893 O   0  0  0  0  0  0  0  0  0  0  0  0
    2.9029   11.3788    9.3969 C   0  0  0  0  0  0  0  0  0  0  0  0
    3.3195   10.9087   10.9884 S   0  0  1  0  0  0  0  0  0  0  0  0
    5.4152   12.1011   10.9356 C   0  0  0  0  0  0  0  0  0  0  0  0
    4.3353   11.4452   12.0240 C   0  0  1  0  0  0  0  0  0  0  0  0
    4.1305   12.4163   13.0038 O   0  0  0  0  0  0  0  0  0  0  0  0
    4.4724   11.9144   14.1614 O   0  0  0  0  0  0  0  0  0  0  0  0
    5.0228   10.7361   13.9830 O   0  0  0  0  0  0  0  0  0  0  0  0
  2  1  1  6
  2  3  1  0
  2  4  1  0
  4  5  1  0
  5  6  1  0
  6  7  1  0
  7  8  1  6
  7  9  1  0
  9 10  1  0
 10 11  1  0
 11 12  1  0
 12 13  1  1
 13 14  1  0
 14 15  1  0
 12 16  1  0
 16 17  1  1
 16 18  1  0
 18 19  1  1
 19 20  1  0
 20 21  1  0
 21 22  1  0
 23 22  1  1
 23 24  1  0
 24 25  1  0
 25 26  1  1
 26 27  1  0
 27 28  1  0
 18  3  1  0
 25 23  1  0
M  RAD  2   6   2   9   2
M  END
>  <docking_score>  (2) 
-4.3869999999999996

$$$$

     RDKit          3D

 28 29  0  0  0  0  0  0  0  0999 V2000
    6.3241   13.5717   14.0263 C   0  0  0  0  0  0  0  0  0  0  0  0
    6.8470   12.4841   13.1635 C   0  0  2  0  0  0  0  0  0  0  0  0
    7.5829   12.9179   11.9542 C   0  0  0  0  0  0  0  0  0  0  0  0
    5.8941   11.3511   12.9329 C   0  0  0  0  0  0  0  0  0  0  0  0
    5.0069   11.1364   14.1241 C   0  0  0  0  0  0  0  0  0  0  0  0
    3.6094   10.7436   13.7742 C   0  0  0  0  0  3  0  0  0  0  0  0
    3.4216   10.3485   12.3438 C   0  0  1  0  0  0  0  0  0  0  0  0
    2.4343    9.1948   12.2818 C   0  0  0  0  0  0  0  0  0  0  0  0
    2.7993   11.4911   11.5581 C   0  0  0  0  0  3  0  0  0  0  0  0
    2.9764   11.2226   10.0777 C   0  0  0  0  0  0  0  0  0  0  0  0
    3.7903   12.3735    9.5148 C   0  0  0  0  0  0  0  0  0  0  0  0
    4.6910   12.8656   10.6034 C   0  0  2  0  0  0  0  0  0  0  0  0
    4.0131   13.8214   11.5449 C   0  0  0  0  0  0  0  0  0  0  0  0
    3.2578   14.9169   10.8241 C   0  0  0  0  0  0  0  0  0  0  0  0
    2.4290   15.6903   11.8194 C   0  0  0  0  0  0  0  0  0  0  0  0
    5.9931   13.3613   10.0679 C   0  0  1  0  0  0  0  0  0  0  0  0
    5.8804   14.1924    8.8371 C   0  0  0  0  0  0  0  0  0  0  0  0
    6.9330   13.8872   11.0807 C   0  0  1  0  0  0  0  0  0  0  0  0
    6.9889   15.1871   11.2970 O   0  0  0  0  0  0  0  0  0  0  0  0
    7.9005   15.6195   12.2035 C   0  0  0  0  0  0  0  0  0  0  0  0
    9.1680   15.2639   11.9979 O   0  0  0  0  0  0  0  0  0  0  0  0
   10.2203   16.0747   12.1579 C   0  0  0  0  0  0  0  0  0  0  0  0
   11.6906   15.4786   11.5172 S   0  0  1  0  0  0  0  0  0  0  0  0
   12.9253   15.9808   13.5271 C   0  0  0  0  0  0  0  0  0  0  0  0
   13.0270   15.0352   12.1573 C   0  0  1  0  0  0  0  0  0  0  0  0
   13.3903   13.7600   12.5895 O   0  0  0  0  0  0  0  0  0  0  0  0
   12.3033   13.1021   12.8967 O   0  0  0  0  0  0  0  0  0  0  0  0
   12.0066   12.2686   11.9269 O   0  0  0  0  0  0  0  0  0  0  0  0
  2  1  1  6
  2  3  1  0
  2  4  1  0
  4  5  1  0
  5  6  1  0
  6  7  1  0
  7  8  1  1
  7  9  1  0
  9 10  1  0
 10 11  1  0
 11 12  1  0
 12 13  1  6
 13 14  1  0
 14 15  1  0
 12 16  1  0
 16 17  1  6
 16 18  1  0
 18 19  1  1
 19 20  1  0
 20 21  1  0
 21 22  1  0
 23 22  1  1
 23 24  1  0
 24 25  1  0
 25 26  1  1
 26 27  1  0
 27 28  1  0
 18  3  1  0
 25 23  1  0
M  RAD  2   6   2   9   2
M  END
>  <docking_score>  (3) 
-3.3599999999999999

$$$$
