
     RDKit          3D

 15 15  0  0  0  0  0  0  0  0999 V2000
   18.0949   -3.7986   -8.0912 C   0  0  0  0  0  0  0  0  0  0  0  0
   17.3649   -3.3941   -6.9654 O   0  0  0  0  0  0  0  0  0  0  0  0
   16.9731   -2.0643   -7.0943 C   0  0  0  0  0  3  0  0  0  0  0  0
   16.7034   -1.4569   -5.8795 O   0  0  0  0  0  0  0  0  0  0  0  0
   15.3563   -1.6304   -5.5733 C   0  0  2  0  0  0  0  0  0  0  0  0
   14.6234   -0.3182   -5.6194 C   0  0  0  0  0  0  0  0  0  0  0  0
   13.5129   -0.2929   -4.6024 C   0  0  0  0  0  2  0  0  0  0  0  0
   15.2309   -2.2773   -4.2208 C   0  0  1  0  0  0  0  0  0  0  0  0
   15.2162   -3.6562   -4.4168 O   0  0  0  0  0  0  0  0  0  0  0  0
   14.2700   -4.0275   -5.3782 C   0  0  0  0  0  3  0  0  0  0  0  0
   14.5549   -5.4105   -5.9091 C   0  0  1  0  0  0  0  0  0  0  0  0
   15.6039   -6.2390   -5.5043 C   0  0  0  0  0  0  0  0  0  0  0  0
   14.2198   -6.4465   -5.0293 O   0  0  0  0  0  0  0  0  0  0  0  0
   16.4834   -1.9556   -3.4173 C   0  0  0  0  0  0  0  0  0  0  0  0
   16.1827   -1.6480   -2.0998 O   0  0  0  0  0  0  0  0  0  0  0  0
  1  2  1  0
  2  3  1  0
  3  4  1  0
  4  5  1  0
  5  6  1  1
  6  7  1  0
  5  8  1  0
  8  9  1  0
  9 10  1  0
 11 10  1  1
 11 12  1  0
 11 13  1  0
  8 14  1  1
 14 15  1  0
 13 12  1  0
M  RAD  3   3   2   7   3  10   2
M  END
>  <docking_score>  (1) 
-3.2309999999999999

$$$$

     RDKit          3D

 15 15  0  0  0  0  0  0  0  0999 V2000
   17.2257   -7.1523   -7.2411 C   0  0  0  0  0  0  0  0  0  0  0  0
   17.2134   -7.7376   -5.9678 O   0  0  0  0  0  0  0  0  0  0  0  0
   16.8475   -6.7990   -5.0068 C   0  0  0  0  0  3  0  0  0  0  0  0
   17.2115   -5.5061   -5.3433 O   0  0  0  0  0  0  0  0  0  0  0  0
   16.3741   -4.6113   -4.6824 C   0  0  2  0  0  0  0  0  0  0  0  0
   16.0263   -5.1173   -3.3098 C   0  0  0  0  0  0  0  0  0  0  0  0
   16.6646   -4.2600   -2.2490 C   0  0  0  0  0  2  0  0  0  0  0  0
   15.1377   -4.3815   -5.5080 C   0  0  1  0  0  0  0  0  0  0  0  0
   14.3651   -3.4291   -4.8477 O   0  0  0  0  0  0  0  0  0  0  0  0
   14.9026   -2.1451   -4.9891 C   0  0  0  0  0  3  0  0  0  0  0  0
   13.8132   -1.1014   -4.9872 C   0  0  1  0  0  0  0  0  0  0  0  0
   13.7782    0.0388   -4.1814 C   0  0  0  0  0  0  0  0  0  0  0  0
   14.1675    0.1034   -5.6057 O   0  0  0  0  0  0  0  0  0  0  0  0
   15.5559   -3.7704   -6.8383 C   0  0  0  0  0  0  0  0  0  0  0  0
   14.6648   -4.0878   -7.8513 O   0  0  0  0  0  0  0  0  0  0  0  0
  1  2  1  0
  2  3  1  0
  3  4  1  0
  4  5  1  0
  5  6  1  1
  6  7  1  0
  5  8  1  0
  8  9  1  0
  9 10  1  0
 11 10  1  1
 11 12  1  0
 11 13  1  0
  8 14  1  6
 14 15  1  0
 13 12  1  0
M  RAD  3   3   2   7   3  10   2
M  END
>  <docking_score>  (2) 
-3.036

$$$$

     RDKit          3D

 15 15  0  0  0  0  0  0  0  0999 V2000
   14.6134   -0.3049   -5.6032 C   0  0  0  0  0  0  0  0  0  0  0  0
   14.5393   -1.2154   -4.5404 O   0  0  0  0  0  0  0  0  0  0  0  0
   14.4875   -2.5203   -5.0231 C   0  0  0  0  0  3  0  0  0  0  0  0
   15.6518   -2.9097   -5.6636 O   0  0  0  0  0  0  0  0  0  0  0  0
   15.5781   -4.2694   -5.9541 C   0  0  2  0  0  0  0  0  0  0  0  0
   14.1803   -4.7852   -5.7520 C   0  0  0  0  0  0  0  0  0  0  0  0
   13.6854   -5.4814   -6.9923 C   0  0  0  0  0  2  0  0  0  0  0  0
   16.5639   -5.0170   -5.0981 C   0  0  1  0  0  0  0  0  0  0  0  0
   15.8736   -5.4970   -3.9877 O   0  0  0  0  0  0  0  0  0  0  0  0
   16.3713   -4.9516   -2.7993 C   0  0  0  0  0  3  0  0  0  0  0  0
   17.6787   -4.2382   -3.0394 C   0  0  1  0  0  0  0  0  0  0  0  0
   18.1142   -3.0892   -2.3756 C   0  0  0  0  0  0  0  0  0  0  0  0
   18.6336   -4.4300   -2.0339 O   0  0  0  0  0  0  0  0  0  0  0  0
   17.0522   -6.2305   -5.8771 C   0  0  0  0  0  0  0  0  0  0  0  0
   16.6126   -7.4157   -5.3088 O   0  0  0  0  0  0  0  0  0  0  0  0
  1  2  1  0
  2  3  1  0
  3  4  1  0
  4  5  1  0
  5  6  1  1
  6  7  1  0
  5  8  1  0
  8  9  1  0
  9 10  1  0
 11 10  1  1
 11 12  1  0
 11 13  1  0
  8 14  1  6
 14 15  1  0
 13 12  1  0
M  RAD  3   3   2   7   3  10   2
M  END
>  <docking_score>  (3) 
-2.996

$$$$
