
     RDKit          3D

 54 55  0  0  0  0  0  0  0  0999 V2000
    9.6640   12.0446   12.9369 C   0  0  2  0  0  0  0  0  0  0  0  0
    9.3144   13.1691   12.0196 C   0  0  2  0  0  0  0  0  0  0  0  0
    9.1057   14.4897   12.6900 C   0  0  0  0  0  0  0  0  0  0  0  0
    8.2679   12.8462   10.9922 C   0  0  0  0  0  0  0  0  0  0  0  0
    8.7112   13.4239    9.6636 C   0  0  0  0  0  0  0  0  0  0  0  0
    8.1190   14.8048    9.4533 C   0  0  0  0  0  0  0  0  0  0  0  0
    8.8593   15.5724    8.3873 C   0  0  1  0  0  0  0  0  0  0  0  0
   10.2837   15.0856    8.2258 C   0  0  0  0  0  0  0  0  0  0  0  0
    8.1167   15.5713    7.0702 C   0  0  0  0  0  3  0  0  0  0  0  0
    7.3205   14.2872    6.9688 C   0  0  0  0  0  0  0  0  0  0  0  0
    6.7367   14.0727    5.5988 C   0  0  0  0  0  3  0  0  0  0  0  0
    5.4954   14.8611    5.3363 C   0  0  0  0  0  3  0  0  0  0  0  0
    4.4540   14.7178    6.4102 C   0  0  2  0  0  0  0  0  0  0  0  0
    4.3942   15.8987    7.3278 C   0  0  0  0  0  2  0  0  0  0  0  0
    4.6701   13.4238    7.1617 C   0  0  0  0  0  0  0  0  0  0  0  0
    4.3319   12.2342    6.2888 C   0  0  2  0  0  0  0  0  0  0  0  0
    3.5200   12.5812    5.1552 N   0  0  0  0  0  0  0  0  0  0  0  0
    3.5915   11.2430    7.1803 C   0  0  0  0  0  3  0  0  0  0  0  0
    4.3208   11.0389    8.4815 C   0  0  0  0  0  0  0  0  0  0  0  0
    4.2707   12.2925    9.3456 C   0  0  0  0  0  0  0  0  0  0  0  0
    3.0732   12.2172   10.2734 C   0  0  2  0  0  0  0  0  0  0  0  0
    2.2577   13.4839   10.2315 C   0  0  0  0  0  1  0  0  0  0  0  0
    3.5063   11.9198   11.6998 C   0  0  1  0  0  0  0  0  0  0  0  0
    4.9257   11.3949   11.7190 C   0  0  0  0  0  0  0  0  0  0  0  0
    3.4389   13.4543   12.6573 S   0  0  0  0  0  0  0  0  0  0  0  0
    5.0693   14.1756   12.5978 N   0  0  0  0  0  0  0  0  0  0  0  0
    5.7127   14.0445   13.8747 C   0  0  0  0  0  3  0  0  0  0  0  0
    6.4629   12.7138   13.8578 C   0  0  0  0  0  0  0  0  0  0  0  0
    7.3804   12.6466   15.0716 C   0  0  1  0  0  0  0  0  0  0  0  0
    8.6563   13.4502   14.7761 C   0  0  0  0  0  0  0  0  0  0  0  0
    9.7237   12.4767   14.4111 C   0  0  2  0  0  0  0  0  0  0  0  0
   11.0808   13.0945   14.0478 C   0  0  1  0  0  0  0  0  0  0  0  0
   12.0588   13.0439   15.1742 C   0  0  0  0  0  0  0  0  0  0  0  0
   11.1982   11.9392   13.0394 C   0  0  2  0  0  0  0  0  0  0  0  0
   11.9032   12.3299   11.7658 C   0  0  0  0  0  2  0  0  0  0  0  0
    6.6238   13.2715   16.2248 C   0  0  0  0  0  3  0  0  0  0  0  0
    5.2324   13.6939   15.8930 C   0  0  0  0  0  0  0  0  0  0  0  0
    4.2248   12.6056   15.9760 C   0  0  1  0  0  0  0  0  0  0  0  0
    3.4665   12.1441   14.4710 Cl  0  0  0  0  0  0  0  0  0  0  0  0
    4.5014   11.5096   16.9357 C   0  0  0  0  0  3  0  0  0  0  0  0
    3.2732   10.7064   17.2848 C   0  0  0  0  0  0  0  0  0  0  0  0
    3.6149    9.2723   17.6264 C   0  0  1  0  0  0  0  0  0  0  0  0
    3.3082    8.9827   19.0898 C   0  0  0  0  0  0  0  0  0  0  0  0
    2.8048    8.3008   16.7914 C   0  0  0  0  0  0  0  0  0  0  0  0
    3.6545    7.3791   15.9795 C   0  0  0  0  0  3  0  0  0  0  0  0
    4.8038    8.0225   15.3144 C   0  0  0  0  0  0  0  0  0  0  0  0
    4.5546    9.0571   14.3247 C   0  0  0  0  0  0  0  0  0  0  0  0
    4.7574    8.8340   12.9216 C   0  0  0  0  0  3  0  0  0  0  0  0
    4.1964    7.6690   12.2399 C   0  0  1  0  0  0  0  0  0  0  0  0
    2.9363    7.0899   12.8011 C   0  0  0  0  0  2  0  0  0  0  0  0
    4.0398    7.9015   10.7334 C   0  0  0  0  0  0  0  0  0  0  0  0
    2.6809    7.3323   10.3339 C   0  0  0  0  0  3  0  0  0  0  0  0
    2.6115    7.4321    8.8182 C   0  0  0  0  0  3  0  0  0  0  0  0
    2.2594    8.8389    8.4257 C   0  0  0  0  0  0  0  0  0  0  0  0
  1  2  1  6
  2  3  1  1
  2  4  1  0
  4  5  1  0
  5  6  1  0
  6  7  1  0
  7  8  1  6
  7  9  1  0
  9 10  1  0
 10 11  1  0
 11 12  1  0
 12 13  1  0
 13 14  1  1
 13 15  1  0
 15 16  1  0
 16 17  1  6
 16 18  1  0
 18 19  1  0
 19 20  1  0
 20 21  1  0
 21 22  1  1
 21 23  1  0
 23 24  1  6
 23 25  1  0
 25 26  1  0
 26 27  1  0
 27 28  1  0
 28 29  1  0
 29 30  1  0
 31 30  1  6
 31 32  1  0
 32 33  1  1
 32 34  1  0
 34 35  1  6
 29 36  1  1
 36 37  1  0
 37 38  1  0
 38 39  1  6
 38 40  1  0
 40 41  1  0
 41 42  1  0
 42 43  1  1
 42 44  1  0
 44 45  1  0
 45 46  1  0
 46 47  1  0
 47 48  1  0
 48 49  1  0
 49 50  1  1
 49 51  1  0
 51 52  1  0
 52 53  1  0
 53 54  1  0
 31  1  1  0
 34  1  1  0
M  RAD  8   9   2  11   2  12   2  14   3  18   2  22   2  27   2  35   3
M  RAD  7  36   2  40   2  45   2  48   2  50   3  52   2  53   2
M  END
>  <docking_score>  (1) 
12.189

$$$$
