
     RDKit          3D

 21 22  0  0  0  0  0  0  0  0999 V2000
   19.8719   -3.0853   -0.8645 C   0  0  0  0  0  0  0  0  0  0  0  0
   19.6590   -2.4560   -2.0067 C   0  0  0  0  0  0  0  0  0  0  0  0
   18.5130   -1.4884   -2.1382 C   0  0  0  0  0  0  0  0  0  0  0  0
   17.3020   -2.3480   -2.5059 C   0  0  0  0  0  0  0  0  0  0  0  0
   17.7342   -3.2253   -3.6573 C   0  0  0  0  0  0  0  0  0  0  0  0
   16.6683   -4.3195   -3.8173 C   0  0  2  0  0  0  0  0  0  0  0  0
   16.9068   -5.2692   -2.6355 C   0  0  0  0  0  0  0  0  0  0  0  0
   18.3029   -5.7800   -2.9969 C   0  0  0  0  0  0  0  0  0  0  0  0
   18.2196   -6.0578   -4.4580 C   0  0  2  0  0  0  0  0  0  0  0  0
   18.4067   -5.0566   -5.5049 C   0  0  0  0  0  0  0  0  0  0  0  0
   17.0294   -5.1894   -4.9847 C   0  0  2  0  0  0  0  0  0  0  0  0
   16.0067   -6.0507   -5.6577 C   0  0  0  0  0  0  0  0  0  0  0  0
   14.9206   -5.2029   -6.2936 C   0  0  0  0  0  0  0  0  0  0  0  0
   15.4858   -4.6954   -7.5490 N   0  0  0  0  0  0  0  0  0  0  0  0
   15.0250   -3.4631   -8.0593 C   0  0  0  0  0  0  0  0  0  0  0  0
   15.4600   -2.2791   -7.7556 C   0  0  0  0  0  0  0  0  0  0  0  0
   16.5011   -1.9087   -6.8423 C   0  0  0  0  0  0  0  0  0  0  0  0
   16.1987   -1.0500   -5.8617 C   0  0  0  0  0  0  0  0  0  0  0  0
   14.8537   -0.5027   -5.7180 C   0  0  0  0  0  0  0  0  0  0  0  0
   14.1686   -0.8386   -4.6433 C   0  0  0  0  0  0  0  0  0  0  0  0
   12.9182   -0.4125   -4.3739 F   0  0  0  0  0  0  0  0  0  0  0  0
  1  2  2  0
  2  3  1  0
  3  4  1  0
  4  5  1  0
  6  5  1  1
  6  7  1  0
  7  8  1  0
  9  8  1  1
  9 10  1  0
  9 11  1  0
 11 12  1  6
 12 13  1  0
 13 14  1  0
 14 15  1  0
 15 16  2  3
 16 17  1  0
 17 18  2  3
 18 19  1  0
 19 20  2  3
 20 21  1  0
 11  6  1  0
 11 10  1  0
M  END
>  <docking_score>  (1) 
-4.6079999999999997

$$$$

     RDKit          3D

 21 22  0  0  0  0  0  0  0  0999 V2000
   19.1487   -6.0817   -3.3452 C   0  0  0  0  0  0  0  0  0  0  0  0
   18.7978   -6.0951   -4.6190 C   0  0  0  0  0  0  0  0  0  0  0  0
   17.8028   -7.1070   -5.1217 C   0  0  0  0  0  0  0  0  0  0  0  0
   16.4546   -6.6619   -4.5517 C   0  0  0  0  0  0  0  0  0  0  0  0
   15.5733   -6.3443   -5.7369 C   0  0  0  0  0  0  0  0  0  0  0  0
   15.1729   -4.8661   -5.6196 C   0  0  2  0  0  0  0  0  0  0  0  0
   13.6444   -4.8660   -5.7577 C   0  0  0  0  0  0  0  0  0  0  0  0
   13.5183   -5.3757   -7.1946 C   0  0  0  0  0  0  0  0  0  0  0  0
   14.5559   -4.6116   -7.9420 C   0  0  2  0  0  0  0  0  0  0  0  0
   15.9654   -4.9862   -8.0219 C   0  0  0  0  0  0  0  0  0  0  0  0
   15.5913   -4.1440   -6.8661 C   0  0  2  0  0  0  0  0  0  0  0  0
   15.7382   -2.6545   -6.8891 C   0  0  0  0  0  0  0  0  0  0  0  0
   17.0676   -2.2522   -7.5002 C   0  0  0  0  0  0  0  0  0  0  0  0
   17.8502   -1.6563   -6.4114 N   0  0  0  0  0  0  0  0  0  0  0  0
   18.7809   -2.4587   -5.7178 C   0  0  0  0  0  0  0  0  0  0  0  0
   19.0992   -2.3797   -4.4625 C   0  0  0  0  0  0  0  0  0  0  0  0
   18.6050   -1.4789   -3.4627 C   0  0  0  0  0  0  0  0  0  0  0  0
   17.6202   -1.9071   -2.6646 C   0  0  0  0  0  0  0  0  0  0  0  0
   17.0606   -3.2479   -2.7997 C   0  0  0  0  0  0  0  0  0  0  0  0
   16.5999   -3.8306   -1.7109 C   0  0  0  0  0  0  0  0  0  0  0  0
   16.0553   -5.0636   -1.6799 F   0  0  0  0  0  0  0  0  0  0  0  0
  1  2  2  0
  2  3  1  0
  3  4  1  0
  4  5  1  0
  6  5  1  6
  6  7  1  0
  7  8  1  0
  9  8  1  1
  9 10  1  0
  9 11  1  0
 11 12  1  1
 12 13  1  0
 13 14  1  0
 14 15  1  0
 15 16  2  3
 16 17  1  0
 17 18  2  3
 18 19  1  0
 19 20  2  3
 20 21  1  0
 11  6  1  0
 11 10  1  0
M  END
>  <docking_score>  (2) 
-3.8010000000000002

$$$$

     RDKit          3D

 21 22  0  0  0  0  0  0  0  0999 V2000
   20.8752   -0.0532   -1.5154 C   0  0  0  0  0  0  0  0  0  0  0  0
   20.4655   -0.0710   -2.7715 C   0  0  0  0  0  0  0  0  0  0  0  0
   19.4636   -1.0975   -3.2286 C   0  0  0  0  0  0  0  0  0  0  0  0
   18.8096   -1.6187   -1.9475 C   0  0  0  0  0  0  0  0  0  0  0  0
   18.8252   -3.1264   -2.0423 C   0  0  0  0  0  0  0  0  0  0  0  0
   18.2952   -3.4975   -3.4353 C   0  0  2  0  0  0  0  0  0  0  0  0
   16.8926   -4.0650   -3.1782 C   0  0  0  0  0  0  0  0  0  0  0  0
   17.2650   -5.3054   -2.3638 C   0  0  0  0  0  0  0  0  0  0  0  0
   18.4227   -5.8870   -3.0991 C   0  0  2  0  0  0  0  0  0  0  0  0
   19.8102   -5.4631   -2.9306 C   0  0  0  0  0  0  0  0  0  0  0  0
   19.0274   -4.7087   -3.9322 C   0  0  2  0  0  0  0  0  0  0  0  0
   19.0584   -5.0549   -5.3882 C   0  0  0  0  0  0  0  0  0  0  0  0
   18.2913   -4.0305   -6.2035 C   0  0  0  0  0  0  0  0  0  0  0  0
   17.1617   -4.7519   -6.8009 N   0  0  0  0  0  0  0  0  0  0  0  0
   16.2294   -4.0379   -7.5833 C   0  0  0  0  0  0  0  0  0  0  0  0
   15.0794   -3.5747   -7.2007 C   0  0  0  0  0  0  0  0  0  0  0  0
   14.4577   -3.6595   -5.9117 C   0  0  0  0  0  0  0  0  0  0  0  0
   14.4791   -2.5720   -5.1325 C   0  0  0  0  0  0  0  0  0  0  0  0
   15.1126   -1.3335   -5.5727 C   0  0  0  0  0  0  0  0  0  0  0  0
   14.4566   -0.2075   -5.3754 C   0  0  0  0  0  0  0  0  0  0  0  0
   14.9134    1.0112   -5.7271 F   0  0  0  0  0  0  0  0  0  0  0  0
  1  2  2  0
  2  3  1  0
  3  4  1  0
  4  5  1  0
  6  5  1  1
  6  7  1  0
  7  8  1  0
  9  8  1  1
  9 10  1  0
  9 11  1  0
 11 12  1  6
 12 13  1  0
 13 14  1  0
 14 15  1  0
 15 16  2  3
 16 17  1  0
 17 18  2  3
 18 19  1  0
 19 20  2  3
 20 21  1  0
 11  6  1  0
 11 10  1  0
M  END
>  <docking_score>  (3) 
-3.7530000000000001

$$$$
