
     RDKit          3D

  9  8  0  0  0  0  0  0  0  0999 V2000
    4.6226   -4.1563   -6.5478 C   0  0  0  0  0  0  0  0  0  0  0  0
    5.3359   -4.0074   -7.7438 O   0  0  0  0  0  0  0  0  0  0  0  0
    5.4491   -2.6566   -8.1082 C   0  0  0  0  0  3  0  0  0  0  0  0
    5.6074   -1.9396   -6.9371 O   0  0  0  0  0  0  0  0  0  0  0  0
    5.7866   -0.5831   -7.1232 C   0  0  2  0  0  0  0  0  0  0  0  0
    6.1773   -0.2438   -8.5442 C   0  0  0  0  0  0  0  0  0  0  0  0
    6.9089   -0.1649   -6.1785 C   0  0  0  0  0  3  0  0  0  0  0  0
    6.5780    1.1156   -5.4858 C   0  0  0  0  0  0  0  0  0  0  0  0
    6.3853    2.0825   -6.2204 O   0  0  0  0  0  0  0  0  0  0  0  0
  1  2  1  0
  2  3  1  0
  3  4  1  0
  4  5  1  0
  5  6  1  6
  5  7  1  0
  7  8  1  0
  8  9  2  0
M  RAD  2   3   2   7   2
M  END
>  <docking_score>  (1) 
-3.0569999999999999

$$$$

     RDKit          3D

  9  8  0  0  0  0  0  0  0  0999 V2000
    7.0553    0.8822   -5.7876 C   0  0  0  0  0  0  0  0  0  0  0  0
    6.2089    0.7075   -6.8896 O   0  0  0  0  0  0  0  0  0  0  0  0
    6.4377   -0.5251   -7.5212 C   0  0  0  0  0  3  0  0  0  0  0  0
    5.1986   -1.0970   -7.7401 O   0  0  0  0  0  0  0  0  0  0  0  0
    5.0152   -2.3107   -7.1075 C   0  0  2  0  0  0  0  0  0  0  0  0
    6.0408   -2.5555   -6.0236 C   0  0  0  0  0  0  0  0  0  0  0  0
    5.1551   -3.3816   -8.1848 C   0  0  0  0  0  3  0  0  0  0  0  0
    4.3645   -4.5993   -7.8368 C   0  0  0  0  0  0  0  0  0  0  0  0
    5.0183   -5.6267   -7.6676 O   0  0  0  0  0  0  0  0  0  0  0  0
  1  2  1  0
  2  3  1  0
  3  4  1  0
  4  5  1  0
  5  6  1  1
  5  7  1  0
  7  8  1  0
  8  9  2  0
M  RAD  2   3   2   7   2
M  END
>  <docking_score>  (2) 
-2.8860000000000001

$$$$

     RDKit          3D

  9  8  0  0  0  0  0  0  0  0999 V2000
   13.8635   -5.3294   -6.0306 C   0  0  0  0  0  0  0  0  0  0  0  0
   14.9424   -4.4702   -6.2737 O   0  0  0  0  0  0  0  0  0  0  0  0
   15.3173   -3.7771   -5.1121 C   0  0  0  0  0  3  0  0  0  0  0  0
   14.6425   -2.5709   -5.1322 O   0  0  0  0  0  0  0  0  0  0  0  0
   15.0604   -1.7045   -6.1229 C   0  0  2  0  0  0  0  0  0  0  0  0
   16.5523   -1.4606   -6.0824 C   0  0  0  0  0  0  0  0  0  0  0  0
   14.3279   -0.3888   -5.8795 C   0  0  0  0  0  3  0  0  0  0  0  0
   13.5420   -0.4389   -4.6111 C   0  0  0  0  0  0  0  0  0  0  0  0
   13.8506    0.3946   -3.7617 O   0  0  0  0  0  0  0  0  0  0  0  0
  1  2  1  0
  2  3  1  0
  3  4  1  0
  4  5  1  0
  5  6  1  1
  5  7  1  0
  7  8  1  0
  8  9  2  0
M  RAD  2   3   2   7   2
M  END
>  <docking_score>  (3) 
-2.7389999999999999

$$$$
