
     RDKit          3D

 24 25  0  0  0  0  0  0  0  0999 V2000
   17.7501   -4.5687   -8.7400 C   0  0  0  0  0  0  0  0  0  0  0  0
   16.7122   -4.6892   -7.6231 C   0  0  1  0  0  0  0  0  0  0  0  0
   15.6843   -5.6757   -8.1453 C   0  0  0  0  0  0  0  0  0  0  0  0
   14.6443   -6.0165   -7.1298 C   0  0  2  0  0  0  0  0  0  0  0  0
   13.5065   -5.2499   -7.1825 O   0  0  0  0  0  0  0  0  0  0  0  0
   15.2119   -6.1695   -5.7344 C   0  0  2  0  0  0  0  0  0  0  0  0
   14.9361   -5.0410   -4.9730 O   0  0  0  0  0  0  0  0  0  0  0  0
   16.7113   -6.3832   -5.8554 C   0  0  1  0  0  0  0  0  0  0  0  0
   17.0005   -7.3494   -6.7948 O   0  0  0  0  0  0  0  0  0  0  0  0
   17.3045   -5.0744   -6.3115 C   0  0  1  0  0  0  0  0  0  0  0  0
   18.7425   -5.1218   -6.3534 N   0  0  0  0  0  0  0  0  0  0  0  0
   19.2456   -4.6759   -5.0726 C   0  0  0  0  0  3  0  0  0  0  0  0
   18.4123   -3.5732   -4.4729 C   0  0  2  0  0  0  0  0  0  0  0  0
   18.9891   -2.3188   -4.6477 O   0  0  0  0  0  0  0  0  0  0  0  0
   18.0985   -1.3910   -5.1634 C   0  0  0  0  0  0  0  0  0  0  0  0
   16.8776   -1.9853   -5.5254 O   0  0  0  0  0  0  0  0  0  0  0  0
   15.8450   -1.2651   -4.9915 N   0  0  0  0  0  0  0  0  0  0  0  0
   15.3901   -1.8708   -3.7582 C   0  0  0  0  0  3  0  0  0  0  0  0
   16.5848   -2.1292   -2.8360 C   0  0  1  0  0  0  0  0  0  0  0  0
   16.2752   -1.5500   -1.6057 O   0  0  0  0  0  0  0  0  0  0  0  0
   16.8024   -3.6151   -2.6503 C   0  0  2  0  0  0  0  0  0  0  0  0
   16.4833   -4.0257   -1.2296 C   0  0  0  0  0  2  0  0  0  0  0  0
   18.2465   -3.9063   -3.0001 C   0  0  1  0  0  0  0  0  0  0  0  0
   18.5575   -5.2461   -2.7516 O   0  0  0  0  0  0  0  0  0  0  0  0
  2  1  1  6
  2  3  1  0
  3  4  1  0
  4  5  1  1
  4  6  1  0
  6  7  1  1
  6  8  1  0
  8  9  1  6
  8 10  1  0
 10 11  1  6
 11 12  1  0
 13 12  1  1
 13 14  1  0
 14 15  1  0
 15 16  1  0
 16 17  1  0
 17 18  1  0
 18 19  1  0
 19 20  1  1
 19 21  1  0
 21 22  1  1
 21 23  1  0
 23 24  1  6
 10  2  1  0
 23 13  1  0
M  RAD  3  12   2  18   2  22   3
M  END
>  <docking_score>  (1) 
-4.6710000000000003

$$$$

     RDKit          3D

 24 25  0  0  0  0  0  0  0  0999 V2000
   14.0510   -4.9279   -6.3900 C   0  0  0  0  0  0  0  0  0  0  0  0
   15.4839   -5.4389   -6.5469 C   0  0  1  0  0  0  0  0  0  0  0  0
   15.6651   -5.6519   -8.0383 C   0  0  0  0  0  0  0  0  0  0  0  0
   17.0611   -6.0386   -8.4001 C   0  0  2  0  0  0  0  0  0  0  0  0
   17.2893   -7.3905   -8.4749 O   0  0  0  0  0  0  0  0  0  0  0  0
   18.1056   -5.2875   -7.6019 C   0  0  2  0  0  0  0  0  0  0  0  0
   18.6247   -6.0977   -6.6002 O   0  0  0  0  0  0  0  0  0  0  0  0
   17.4487   -4.0527   -7.0084 C   0  0  1  0  0  0  0  0  0  0  0  0
   16.7283   -3.3669   -7.9625 O   0  0  0  0  0  0  0  0  0  0  0  0
   16.4992   -4.5329   -5.9403 C   0  0  1  0  0  0  0  0  0  0  0  0
   15.8976   -3.4384   -5.2246 N   0  0  0  0  0  0  0  0  0  0  0  0
   15.7668   -3.8251   -3.8369 C   0  0  0  0  0  3  0  0  0  0  0  0
   17.0986   -4.0264   -3.1617 C   0  0  2  0  0  0  0  0  0  0  0  0
   17.1617   -5.2282   -2.4628 O   0  0  0  0  0  0  0  0  0  0  0  0
   18.2979   -5.9610   -2.7660 C   0  0  0  0  0  0  0  0  0  0  0  0
   19.0275   -5.3805   -3.8175 O   0  0  0  0  0  0  0  0  0  0  0  0
   20.3430   -5.2807   -3.4577 N   0  0  0  0  0  0  0  0  0  0  0  0
   20.6340   -3.9504   -2.9674 C   0  0  0  0  0  3  0  0  0  0  0  0
   19.6077   -3.5544   -1.9024 C   0  0  1  0  0  0  0  0  0  0  0  0
   20.3296   -3.1423   -0.7826 O   0  0  0  0  0  0  0  0  0  0  0  0
   18.7461   -2.4111   -2.3924 C   0  0  2  0  0  0  0  0  0  0  0  0
   19.0381   -1.1510   -1.6077 C   0  0  0  0  0  2  0  0  0  0  0  0
   17.3014   -2.8373   -2.2384 C   0  0  1  0  0  0  0  0  0  0  0  0
   16.4365   -1.7913   -2.5718 O   0  0  0  0  0  0  0  0  0  0  0  0
  2  1  1  6
  2  3  1  0
  3  4  1  0
  4  5  1  1
  4  6  1  0
  6  7  1  1
  6  8  1  0
  8  9  1  6
  8 10  1  0
 10 11  1  6
 11 12  1  0
 13 12  1  1
 13 14  1  0
 14 15  1  0
 15 16  1  0
 16 17  1  0
 17 18  1  0
 18 19  1  0
 19 20  1  1
 19 21  1  0
 21 22  1  1
 21 23  1  0
 23 24  1  6
 10  2  1  0
 23 13  1  0
M  RAD  3  12   2  18   2  22   3
M  END
>  <docking_score>  (2) 
-4.4109999999999996

$$$$

     RDKit          3D

 24 25  0  0  0  0  0  0  0  0999 V2000
   16.3989   -4.7697   -7.7157 C   0  0  0  0  0  0  0  0  0  0  0  0
   16.2875   -3.7072   -6.6212 C   0  0  1  0  0  0  0  0  0  0  0  0
   14.8095   -3.6425   -6.2839 C   0  0  0  0  0  0  0  0  0  0  0  0
   14.5196   -2.7347   -5.1346 C   0  0  2  0  0  0  0  0  0  0  0  0
   14.1993   -1.4446   -5.4787 O   0  0  0  0  0  0  0  0  0  0  0  0
   15.5526   -2.8326   -4.0320 C   0  0  2  0  0  0  0  0  0  0  0  0
   16.4190   -1.7481   -4.0823 O   0  0  0  0  0  0  0  0  0  0  0  0
   16.3121   -4.1363   -4.2108 C   0  0  1  0  0  0  0  0  0  0  0  0
   15.4470   -5.1925   -4.4001 O   0  0  0  0  0  0  0  0  0  0  0  0
   17.1618   -3.9817   -5.4466 C   0  0  1  0  0  0  0  0  0  0  0  0
   18.0179   -5.1198   -5.6558 N   0  0  0  0  0  0  0  0  0  0  0  0
   19.0998   -5.0521   -4.6982 C   0  0  0  0  0  3  0  0  0  0  0  0
   19.7411   -3.6898   -4.6413 C   0  0  2  0  0  0  0  0  0  0  0  0
   20.8910   -3.6130   -5.4213 O   0  0  0  0  0  0  0  0  0  0  0  0
   20.8925   -2.5099   -6.2598 C   0  0  0  0  0  0  0  0  0  0  0  0
   19.6648   -1.8269   -6.2251 O   0  0  0  0  0  0  0  0  0  0  0  0
   19.8919   -0.4921   -6.0338 N   0  0  0  0  0  0  0  0  0  0  0  0
   19.7406   -0.1483   -4.6360 C   0  0  0  0  0  3  0  0  0  0  0  0
   20.5665   -1.1071   -3.7740 C   0  0  1  0  0  0  0  0  0  0  0  0
   21.3644   -0.3173   -2.9467 O   0  0  0  0  0  0  0  0  0  0  0  0
   19.6619   -1.9710   -2.9225 C   0  0  2  0  0  0  0  0  0  0  0  0
   19.8059   -1.6115   -1.4600 C   0  0  0  0  0  2  0  0  0  0  0  0
   20.0443   -3.4134   -3.1788 C   0  0  1  0  0  0  0  0  0  0  0  0
   19.3230   -4.2740   -2.3465 O   0  0  0  0  0  0  0  0  0  0  0  0
  2  1  1  6
  2  3  1  0
  3  4  1  0
  4  5  1  6
  4  6  1  0
  6  7  1  6
  6  8  1  0
  8  9  1  6
  8 10  1  0
 10 11  1  6
 11 12  1  0
 13 12  1  1
 13 14  1  0
 14 15  1  0
 15 16  1  0
 16 17  1  0
 17 18  1  0
 18 19  1  0
 19 20  1  1
 19 21  1  0
 21 22  1  1
 21 23  1  0
 23 24  1  1
 10  2  1  0
 23 13  1  0
M  RAD  3  12   2  18   2  22   3
M  END
>  <docking_score>  (3) 
-4.298

$$$$
