
     RDKit          3D

 38 40  0  0  0  0  0  0  0  0999 V2000
   10.1085   14.8374    3.2560 C   0  0  0  0  0  0  0  0  0  0  0  0
    9.0983   14.2157    4.1442 C   0  0  0  0  0  0  0  0  0  0  0  0
    7.9820   15.1474    4.5548 C   0  0  0  0  0  0  0  0  0  0  0  0
    8.7027   12.8627    3.8843 C   0  0  0  0  0  0  0  0  0  0  0  0
    7.6004   12.2181    3.4782 C   0  0  0  0  0  0  0  0  0  0  0  0
    6.2602   12.0764    3.7308 C   0  0  0  0  0  0  0  0  0  0  0  0
    5.2974   11.1601    3.0999 C   0  0  1  0  0  0  0  0  0  0  0  0
    4.2934   10.7246    4.1886 C   0  0  0  0  0  0  0  0  0  0  0  0
    4.4086   11.9373    2.1155 C   0  0  0  0  0  3  0  0  0  0  0  0
    4.1225   13.2789    2.7825 C   0  0  0  0  0  0  0  0  0  0  0  0
    3.2915   13.0211    3.9979 C   0  0  0  0  0  0  0  0  0  0  0  0
    3.8413   11.9604    4.8972 C   0  0  2  0  0  0  0  0  0  0  0  0
    4.8525   12.5126    5.8603 C   0  0  0  0  0  0  0  0  0  0  0  0
    4.1951   13.2783    6.9751 C   0  0  0  0  0  0  0  0  0  0  0  0
    5.2913   14.1340    7.6202 C   0  0  0  0  0  0  0  0  0  0  0  0
    5.5936   13.5364    8.9715 C   0  0  0  0  0  0  0  0  0  0  0  0
    5.7606   14.6647    9.9668 C   0  0  1  0  0  0  0  0  0  0  0  0
    4.3906   15.0280   10.4952 C   0  0  0  0  0  0  0  0  0  0  0  0
    4.4525   16.0728   11.5623 C   0  0  0  0  0  0  0  0  0  0  0  0
    3.7817   15.6051   12.8484 C   0  0  0  0  0  0  0  0  0  0  0  0
    4.4881   14.4962   13.3148 O   0  0  0  0  0  0  0  0  0  0  0  0
    3.6047   13.6215   13.9378 C   0  0  0  0  0  0  0  0  0  0  0  0
    3.5143   12.3513   13.2321 N   0  0  0  0  0  0  0  0  0  0  0  0
    4.8699   11.8819   13.0277 C   0  0  2  0  0  0  0  0  0  0  0  0
    5.2768   12.4389   11.6259 C   0  0  2  0  0  0  0  0  0  0  0  0
    5.1933   11.0033   11.8990 C   0  0  1  0  0  0  0  0  0  0  0  0
    6.3731   10.0935   11.9107 C   0  0  0  0  0  2  0  0  0  0  0  0
    6.6938   14.2924   11.0664 C   0  0  0  0  0  0  0  0  0  0  0  0
    6.4804   13.2452   11.8586 C   0  0  0  0  0  0  0  0  0  0  0  0
    7.4875   12.9759   12.9232 C   0  0  0  0  0  3  0  0  0  0  0  0
    8.0948   14.1125   13.3849 O   0  0  0  0  0  0  0  0  0  0  0  0
    9.4521   14.1769   13.0951 C   0  0  2  0  0  0  0  0  0  0  0  0
   10.2980   13.9200   14.3219 C   0  0  0  0  0  0  0  0  0  0  0  0
    9.8247   15.5593   12.5790 C   0  0  0  0  0  0  0  0  0  0  0  0
   10.7644   15.3638   11.4902 N   0  0  0  0  0  0  0  0  0  0  0  0
   12.1831   15.5880   11.6337 C   0  0  0  0  0  0  0  0  0  0  0  0
   10.2322   14.9330   10.2428 C   0  0  0  0  0  0  0  0  0  0  0  0
   10.4315   15.5738    9.1697 O   0  0  0  0  0  0  0  0  0  0  0  0
  1  2  1  0
  2  3  1  0
  2  4  1  0
  4  5  1  0
  5  6  1  0
  7  6  1  1
  7  8  1  0
  7  9  1  0
  9 10  1  0
 10 11  1  0
 11 12  1  0
 12 13  1  6
 13 14  1  0
 14 15  1  0
 15 16  1  0
 17 16  1  6
 17 18  1  0
 18 19  1  0
 19 20  1  0
 20 21  1  0
 21 22  1  0
 22 23  1  0
 24 23  1  6
 24 25  1  0
 25 26  1  0
 26 27  1  1
 17 28  1  0
 28 29  2  3
 29 30  1  0
 30 31  1  0
 31 32  1  0
 32 33  1  1
 32 34  1  0
 34 35  1  0
 35 36  1  0
 35 37  1  0
 37 38  2  0
 12  8  1  0
 26 24  1  0
 25 29  1  1
M  RAD  3   9   2  27   3  30   2
M  END
>  <docking_score>  (1) 
-3.7410000000000001

$$$$

     RDKit          3D

 38 40  0  0  0  0  0  0  0  0999 V2000
   16.9742   -8.6821   -5.3285 C   0  0  0  0  0  0  0  0  0  0  0  0
   16.0578   -7.5194   -5.3941 C   0  0  0  0  0  0  0  0  0  0  0  0
   14.8300   -7.6527   -4.5238 C   0  0  0  0  0  0  0  0  0  0  0  0
   16.6273   -6.2053   -5.4531 C   0  0  0  0  0  0  0  0  0  0  0  0
   17.5450   -5.5601   -6.1861 C   0  0  0  0  0  0  0  0  0  0  0  0
   18.8642   -5.5876   -6.5588 C   0  0  0  0  0  0  0  0  0  0  0  0
   19.4376   -5.8071   -7.8958 C   0  0  1  0  0  0  0  0  0  0  0  0
   20.9713   -5.6930   -7.7645 C   0  0  0  0  0  0  0  0  0  0  0  0
   19.2446   -7.2751   -8.3094 C   0  0  0  0  0  3  0  0  0  0  0  0
   19.4775   -8.0978   -7.0464 C   0  0  0  0  0  0  0  0  0  0  0  0
   20.9128   -7.9478   -6.6571 C   0  0  0  0  0  0  0  0  0  0  0  0
   21.3816   -6.5291   -6.5956 C   0  0  2  0  0  0  0  0  0  0  0  0
   21.0857   -5.8994   -5.2649 C   0  0  0  0  0  0  0  0  0  0  0  0
   21.2783   -6.8739   -4.1360 C   0  0  0  0  0  0  0  0  0  0  0  0
   20.2366   -6.5156   -3.0698 C   0  0  0  0  0  0  0  0  0  0  0  0
   19.4543   -5.3327   -3.5829 C   0  0  0  0  0  0  0  0  0  0  0  0
   18.9832   -4.5199   -2.3959 C   0  0  1  0  0  0  0  0  0  0  0  0
   20.1894   -3.8390   -1.7878 C   0  0  0  0  0  0  0  0  0  0  0  0
   19.8197   -2.9297   -0.6606 C   0  0  0  0  0  0  0  0  0  0  0  0
   20.3206   -1.5095   -0.8949 C   0  0  0  0  0  0  0  0  0  0  0  0
   19.6920   -1.0229   -2.0412 O   0  0  0  0  0  0  0  0  0  0  0  0
   20.5624   -0.1712   -2.7124 C   0  0  0  0  0  0  0  0  0  0  0  0
   20.9284   -0.6941   -4.0208 N   0  0  0  0  0  0  0  0  0  0  0  0
   19.6958   -1.0420   -4.6987 C   0  0  2  0  0  0  0  0  0  0  0  0
   19.4608   -2.5467   -4.3503 C   0  0  2  0  0  0  0  0  0  0  0  0
   19.6779   -2.0904   -5.7239 C   0  0  1  0  0  0  0  0  0  0  0  0
   18.6368   -2.1457   -6.7883 C   0  0  0  0  0  2  0  0  0  0  0  0
   17.9346   -3.5366   -2.7860 C   0  0  0  0  0  0  0  0  0  0  0  0
   18.1434   -2.5991   -3.7064 C   0  0  0  0  0  0  0  0  0  0  0  0
   17.0153   -1.6740   -4.0092 C   0  0  0  0  0  3  0  0  0  0  0  0
   17.1014   -1.1155   -5.2561 O   0  0  0  0  0  0  0  0  0  0  0  0
   16.0799   -1.5049   -6.1135 C   0  0  2  0  0  0  0  0  0  0  0  0
   15.0423   -0.4170   -6.2763 C   0  0  0  0  0  0  0  0  0  0  0  0
   15.3593   -2.7290   -5.5672 C   0  0  0  0  0  0  0  0  0  0  0  0
   14.7716   -3.4146   -6.7036 N   0  0  0  0  0  0  0  0  0  0  0  0
   14.8093   -2.8787   -8.0434 C   0  0  0  0  0  0  0  0  0  0  0  0
   14.1398   -4.6645   -6.4520 C   0  0  0  0  0  0  0  0  0  0  0  0
   13.4832   -4.8845   -5.3926 O   0  0  0  0  0  0  0  0  0  0  0  0
  1  2  1  0
  2  3  1  0
  2  4  1  0
  4  5  1  0
  5  6  1  0
  7  6  1  1
  7  8  1  0
  7  9  1  0
  9 10  1  0
 10 11  1  0
 11 12  1  0
 12 13  1  1
 13 14  1  0
 14 15  1  0
 15 16  1  0
 17 16  1  6
 17 18  1  0
 18 19  1  0
 19 20  1  0
 20 21  1  0
 21 22  1  0
 22 23  1  0
 24 23  1  1
 24 25  1  0
 25 26  1  0
 26 27  1  6
 17 28  1  0
 28 29  2  3
 29 30  1  0
 30 31  1  0
 31 32  1  0
 32 33  1  1
 32 34  1  0
 34 35  1  0
 35 36  1  0
 35 37  1  0
 37 38  2  0
 12  8  1  0
 26 24  1  0
 25 29  1  6
M  RAD  3   9   2  27   3  30   2
M  END
>  <docking_score>  (2) 
-2.0339999999999998

$$$$
