
     RDKit          3D

  8  9  0  0  0  0  0  0  0  0999 V2000
    5.9870    1.1384   24.8860 N   0  0  0  0  0  0  0  0  0  0  0  0
    6.2703    1.4378   25.5684 C   0  0  0  0  0  0  0  0  0  0  0  0
    4.8607    0.9596   25.3834 C   0  0  0  0  0  0  0  0  0  0  0  0
    7.6723    1.7110   25.1103 C   0  0  0  0  0  0  0  0  0  0  0  0
    6.3375    1.1782   24.6809 C   0  0  0  0  0  0  0  0  0  0  0  0
    5.4039    1.2689   25.8515 C   0  0  0  0  0  0  0  0  0  0  0  0
    6.1617    1.8577   27.0043 C   0  0  0  0  0  0  0  0  0  0  0  0
    7.5637    2.1310   26.5463 N   0  0  0  0  0  0  0  0  0  0  0  0
  1  2  1  0
  2  3  1  0
  2  4  1  0
  4  5  2  0
  5  6  1  0
  6  7  2  0
  7  8  1  0
  7  2  1  0
  8  4  1  0
M  END
>  <docking_score>  (1) 
-4.444

$$$$

     RDKit          3D

  8  9  0  0  0  0  0  0  0  0999 V2000
    7.3612    2.0589   26.6430 N   0  0  0  0  0  0  0  0  0  0  0  0
    6.7725    1.7490   26.2038 C   0  0  0  0  0  0  0  0  0  0  0  0
    6.6522    2.0644   27.6653 C   0  0  0  0  0  0  0  0  0  0  0  0
    7.5021    1.6807   24.8950 C   0  0  0  0  0  0  0  0  0  0  0  0
    7.6297    2.0764   26.3362 C   0  0  0  0  0  0  0  0  0  0  0  0
    6.3216    1.7913   27.0127 C   0  0  0  0  0  0  0  0  0  0  0  0
    5.3856    1.2193   25.9896 C   0  0  0  0  0  0  0  0  0  0  0  0
    6.1151    1.1510   24.6808 N   0  0  0  0  0  0  0  0  0  0  0  0
  1  2  1  0
  2  3  1  0
  2  4  1  0
  4  5  2  0
  5  6  1  0
  6  7  2  0
  7  8  1  0
  7  2  1  0
  8  4  1  0
M  END
>  <docking_score>  (2) 
-4.4400000000000004

$$$$

     RDKit          3D

  8  9  0  0  0  0  0  0  0  0999 V2000
    5.6177    1.5190   26.2185 N   0  0  0  0  0  0  0  0  0  0  0  0
    6.2272    1.5010   25.7050 C   0  0  0  0  0  0  0  0  0  0  0  0
    4.8538    0.9838   25.3952 C   0  0  0  0  0  0  0  0  0  0  0  0
    7.2614    2.1368   26.5860 C   0  0  0  0  0  0  0  0  0  0  0  0
    5.8295    1.6951   26.5196 C   0  0  0  0  0  0  0  0  0  0  0  0
    5.5881    1.1081   25.1605 C   0  0  0  0  0  0  0  0  0  0  0  0
    6.8708    1.1871   24.3869 C   0  0  0  0  0  0  0  0  0  0  0  0
    7.9050    1.8229   25.2680 N   0  0  0  0  0  0  0  0  0  0  0  0
  1  2  1  0
  2  3  1  0
  2  4  1  0
  4  5  2  0
  5  6  1  0
  6  7  2  0
  7  8  1  0
  7  2  1  0
  8  4  1  0
M  END
>  <docking_score>  (3) 
-4.4400000000000004

$$$$
