
     RDKit          3D

 24 25  0  0  0  0  0  0  0  0999 V2000
   16.4820   -2.3656   -2.4974 C   0  0  0  0  0  0  0  0  0  0  0  0
   16.0054   -3.2123   -3.6943 C   0  0  1  0  0  0  0  0  0  0  0  0
   14.9223   -2.3857   -4.3830 C   0  0  0  0  0  0  0  0  0  0  0  0
   15.4510   -1.1080   -4.9741 C   0  0  2  0  0  0  0  0  0  0  0  0
   14.4760   -0.6411   -5.8597 O   0  0  0  0  0  0  0  0  0  0  0  0
   16.7278   -1.2891   -5.7507 C   0  0  2  0  0  0  0  0  0  0  0  0
   16.4770   -1.9324   -6.9595 O   0  0  0  0  0  0  0  0  0  0  0  0
   17.7530   -2.1326   -5.0023 C   0  0  1  0  0  0  0  0  0  0  0  0
   18.2312   -1.4364   -3.9165 O   0  0  0  0  0  0  0  0  0  0  0  0
   17.0866   -3.4111   -4.6878 C   0  0  1  0  0  0  0  0  0  0  0  0
   17.9477   -4.5300   -4.4710 N   0  0  0  0  0  0  0  0  0  0  0  0
   18.0991   -5.3478   -5.6671 C   0  0  1  0  0  0  0  0  0  0  0  0
   19.3697   -6.1310   -5.6743 C   0  0  0  0  0  0  0  0  0  0  0  0
   19.1723   -7.5849   -5.2784 C   0  0  2  0  0  0  0  0  0  0  0  0
   18.9388   -7.6884   -3.9074 O   0  0  0  0  0  0  0  0  0  0  0  0
   20.5035   -8.2817   -5.5581 C   0  0  0  0  0  0  0  0  0  0  0  0
   21.0534   -7.8461   -6.7597 O   0  0  0  0  0  0  0  0  0  0  0  0
   18.1160   -8.2576   -6.1000 C   0  0  1  0  0  0  0  0  0  0  0  0
   17.4591   -9.2208   -5.3959 O   0  0  0  0  0  0  0  0  0  0  0  0
   17.1940   -7.3015   -6.7734 C   0  0  2  0  0  0  0  0  0  0  0  0
   17.7529   -6.7742   -7.9468 O   0  0  0  0  0  0  0  0  0  0  0  0
   16.8382   -6.1429   -5.8706 C   0  0  1  0  0  0  0  0  0  0  0  0
   16.4434   -6.6856   -4.6256 O   0  0  0  0  0  0  0  0  0  0  0  0
   14.7391   -6.8648   -4.5531 S   0  0  0  0  0  0  0  0  0  0  0  0
  2  1  1  1
  2  3  1  0
  3  4  1  0
  4  5  1  6
  4  6  1  0
  6  7  1  6
  6  8  1  0
  8  9  1  1
  8 10  1  0
 10 11  1  1
 12 11  1  1
 12 13  1  0
 13 14  1  0
 14 15  1  1
 14 16  1  0
 16 17  1  0
 14 18  1  0
 18 19  1  1
 18 20  1  0
 20 21  1  6
 20 22  1  0
 22 23  1  1
 23 24  1  0
 10  2  1  0
 22 12  1  0
M  END
>  <docking_score>  (1) 
-4.5739999999999998

$$$$

     RDKit          3D

 24 25  0  0  0  0  0  0  0  0999 V2000
   16.5341   -4.2465   -2.4502 C   0  0  0  0  0  0  0  0  0  0  0  0
   17.4962   -3.3643   -3.2703 C   0  0  1  0  0  0  0  0  0  0  0  0
   18.3831   -2.6560   -2.2494 C   0  0  0  0  0  0  0  0  0  0  0  0
   19.2590   -3.6055   -1.4794 C   0  0  2  0  0  0  0  0  0  0  0  0
   20.2475   -2.8320   -0.8650 O   0  0  0  0  0  0  0  0  0  0  0  0
   19.9472   -4.6251   -2.3473 C   0  0  2  0  0  0  0  0  0  0  0  0
   20.9667   -4.0300   -3.0850 O   0  0  0  0  0  0  0  0  0  0  0  0
   18.9992   -5.2790   -3.3454 C   0  0  1  0  0  0  0  0  0  0  0  0
   18.1082   -6.0917   -2.6837 O   0  0  0  0  0  0  0  0  0  0  0  0
   18.3936   -4.1799   -4.1218 C   0  0  1  0  0  0  0  0  0  0  0  0
   17.8967   -4.5263   -5.4156 N   0  0  0  0  0  0  0  0  0  0  0  0
   16.4598   -4.3138   -5.5282 C   0  0  1  0  0  0  0  0  0  0  0  0
   16.1114   -3.2095   -6.4700 C   0  0  0  0  0  0  0  0  0  0  0  0
   15.6669   -3.7113   -7.8338 C   0  0  2  0  0  0  0  0  0  0  0  0
   16.7602   -4.1874   -8.5571 O   0  0  0  0  0  0  0  0  0  0  0  0
   15.1368   -2.4876   -8.5803 C   0  0  0  0  0  0  0  0  0  0  0  0
   14.8015   -1.4680   -7.6949 O   0  0  0  0  0  0  0  0  0  0  0  0
   14.5558   -4.7109   -7.7353 C   0  0  1  0  0  0  0  0  0  0  0  0
   14.6059   -5.6292   -8.7400 O   0  0  0  0  0  0  0  0  0  0  0  0
   14.4390   -5.3327   -6.3872 C   0  0  2  0  0  0  0  0  0  0  0  0
   13.7555   -4.5031   -5.4861 O   0  0  0  0  0  0  0  0  0  0  0  0
   15.7961   -5.6371   -5.7959 C   0  0  1  0  0  0  0  0  0  0  0  0
   16.5413   -6.3219   -6.7839 O   0  0  0  0  0  0  0  0  0  0  0  0
   17.5195   -7.5386   -6.0735 S   0  0  0  0  0  0  0  0  0  0  0  0
  2  1  1  1
  2  3  1  0
  3  4  1  0
  4  5  1  6
  4  6  1  0
  6  7  1  6
  6  8  1  0
  8  9  1  1
  8 10  1  0
 10 11  1  6
 12 11  1  6
 12 13  1  0
 13 14  1  0
 14 15  1  6
 14 16  1  0
 16 17  1  0
 14 18  1  0
 18 19  1  6
 18 20  1  0
 20 21  1  1
 20 22  1  0
 22 23  1  6
 23 24  1  0
 10  2  1  0
 22 12  1  0
M  END
>  <docking_score>  (2) 
-3.7909999999999999

$$$$

     RDKit          3D

 24 25  0  0  0  0  0  0  0  0999 V2000
   20.1875   -5.6342   -5.0912 C   0  0  0  0  0  0  0  0  0  0  0  0
   19.2124   -5.5709   -6.2836 C   0  0  1  0  0  0  0  0  0  0  0  0
   19.8552   -6.4025   -7.3908 C   0  0  0  0  0  0  0  0  0  0  0  0
   19.9682   -7.8593   -7.0353 C   0  0  2  0  0  0  0  0  0  0  0  0
   20.2215   -8.5452   -8.2262 O   0  0  0  0  0  0  0  0  0  0  0  0
   18.7110   -8.4300   -6.4353 C   0  0  2  0  0  0  0  0  0  0  0  0
   17.7287   -8.5794   -7.4103 O   0  0  0  0  0  0  0  0  0  0  0  0
   18.1253   -7.5385   -5.3468 C   0  0  1  0  0  0  0  0  0  0  0  0
   18.9433   -7.5488   -4.2408 O   0  0  0  0  0  0  0  0  0  0  0  0
   17.9165   -6.2146   -5.9643 C   0  0  1  0  0  0  0  0  0  0  0  0
   16.9318   -5.3837   -5.3475 N   0  0  0  0  0  0  0  0  0  0  0  0
   17.3525   -3.9906   -5.2780 C   0  0  1  0  0  0  0  0  0  0  0  0
   16.5736   -3.1057   -6.1935 C   0  0  0  0  0  0  0  0  0  0  0  0
   15.4869   -2.3211   -5.4773 C   0  0  2  0  0  0  0  0  0  0  0  0
   14.4252   -3.1592   -5.1378 O   0  0  0  0  0  0  0  0  0  0  0  0
   14.9529   -1.3152   -6.4966 C   0  0  0  0  0  0  0  0  0  0  0  0
   14.1175   -0.3830   -5.8891 O   0  0  0  0  0  0  0  0  0  0  0  0
   16.0197   -1.5549   -4.3059 C   0  0  1  0  0  0  0  0  0  0  0  0
   15.0961   -1.4360   -3.3120 O   0  0  0  0  0  0  0  0  0  0  0  0
   17.3336   -2.0592   -3.8188 C   0  0  2  0  0  0  0  0  0  0  0  0
   18.3980   -1.5831   -4.5982 O   0  0  0  0  0  0  0  0  0  0  0  0
   17.3896   -3.5694   -3.8341 C   0  0  1  0  0  0  0  0  0  0  0  0
   16.2172   -4.0402   -3.1985 O   0  0  0  0  0  0  0  0  0  0  0  0
   16.5273   -4.4207   -1.5550 S   0  0  0  0  0  0  0  0  0  0  0  0
  2  1  1  1
  2  3  1  0
  3  4  1  0
  4  5  1  6
  4  6  1  0
  6  7  1  6
  6  8  1  0
  8  9  1  1
  8 10  1  0
 10 11  1  1
 12 11  1  1
 12 13  1  0
 13 14  1  0
 14 15  1  1
 14 16  1  0
 16 17  1  0
 14 18  1  0
 18 19  1  1
 18 20  1  0
 20 21  1  6
 20 22  1  0
 22 23  1  1
 23 24  1  0
 10  2  1  0
 22 12  1  0
M  END
>  <docking_score>  (3) 
-3.7559999999999998

$$$$
