
     RDKit          3D

 31 30  0  0  0  0  0  0  0  0999 V2000
    6.8174    8.4766    5.5821 C   0  0  0  0  0  0  0  0  0  0  0  0
    5.5520    8.7132    5.8474 C   0  0  0  0  0  0  0  0  0  0  0  0
    5.0264    8.2953    7.1824 C   0  0  0  0  0  0  0  0  0  0  0  0
    4.6337    9.3749    4.8772 C   0  0  0  0  0  0  0  0  0  0  0  0
    5.0769   10.8075    4.7114 C   0  0  0  0  0  0  0  0  0  0  0  0
    4.8505   11.5966    6.0020 C   0  0  0  0  0  0  0  0  0  0  0  0
    3.5341   12.3196    5.8980 C   0  0  1  0  0  0  0  0  0  0  0  0
    2.3974   11.4107    6.2622 C   0  0  0  0  0  0  0  0  0  0  0  0
    3.5301   13.5948    6.6982 C   0  0  0  0  0  3  0  0  0  0  0  0
    4.0485   13.2599    8.0980 C   0  0  0  0  0  0  0  0  0  0  0  0
    3.3271   12.0061    8.5742 C   0  0  0  0  0  0  0  0  0  0  0  0
    4.1766   11.2166    9.5350 C   0  0  2  0  0  0  0  0  0  0  0  0
    3.5060    9.9759   10.0432 C   0  0  0  0  0  0  0  0  0  0  0  0
    4.6348   12.1133   10.6432 C   0  0  0  0  0  3  0  0  0  0  0  0
    5.0355   13.4438   10.0315 C   0  0  0  0  0  0  0  0  0  0  0  0
    6.3909   13.8248   10.5885 C   0  0  0  0  0  0  0  0  0  0  0  0
    6.2158   15.1054   11.3768 C   0  0  0  0  0  0  0  0  0  0  0  0
    6.6157   14.8127   12.8032 C   0  0  0  0  0  3  0  0  0  0  0  0
    5.7939   13.6802   13.3857 C   0  0  0  0  0  3  0  0  0  0  0  0
    4.6952   14.3366   14.2289 C   0  0  0  0  0  3  0  0  0  0  0  0
    3.5221   14.5491   13.3319 C   0  0  0  0  0  0  0  0  0  0  0  0
    2.2631   13.9049   13.8049 C   0  0  0  0  0  0  0  0  0  0  0  0
    2.4109   13.1766   15.1136 C   0  0  0  0  0  0  0  0  0  0  0  0
    2.4965   14.0772   16.2959 C   0  0  0  0  0  0  0  0  0  0  0  0
    3.7165   13.7366   17.1443 C   0  0  0  0  0  0  0  0  0  0  0  0
    3.9110   14.7917   18.2321 C   0  0  0  0  0  3  0  0  0  0  0  0
    3.7638   14.0792   19.5638 C   0  0  2  0  0  0  0  0  0  0  0  0
    2.2896   13.8309   19.8556 C   0  0  0  0  0  0  0  0  0  0  0  0
    4.3081   14.9575   20.6822 C   0  0  0  0  0  3  0  0  0  0  0  0
    5.3888   15.8244   20.1724 C   0  0  0  0  0  0  0  0  0  0  0  0
    6.5498   15.6938   20.5024 O   0  0  0  0  0  0  0  0  0  0  0  0
  1  2  2  0
  2  3  1  0
  2  4  1  0
  4  5  1  0
  5  6  1  0
  6  7  1  0
  7  8  1  1
  7  9  1  0
  9 10  1  0
 10 11  1  0
 11 12  1  0
 12 13  1  1
 12 14  1  0
 14 15  1  0
 15 16  1  0
 16 17  1  0
 17 18  1  0
 18 19  1  0
 19 20  1  0
 20 21  1  0
 21 22  1  0
 22 23  1  0
 23 24  1  0
 24 25  1  0
 25 26  1  0
 26 27  1  0
 27 28  1  1
 27 29  1  0
 29 30  1  0
 30 31  2  0
M  RAD  7   9   2  14   2  18   2  19   2  20   2  26   2  29   2
M  END
>  <docking_score>  (1) 
-0.76000000000000001

$$$$

     RDKit          3D

 31 30  0  0  0  0  0  0  0  0999 V2000
   13.2620   -0.5202   -2.4046 C   0  0  0  0  0  0  0  0  0  0  0  0
   14.2961   -0.0993   -3.0983 C   0  0  0  0  0  0  0  0  0  0  0  0
   14.0874    1.0358   -4.0476 C   0  0  0  0  0  0  0  0  0  0  0  0
   15.6524   -0.7055   -2.9741 C   0  0  0  0  0  0  0  0  0  0  0  0
   15.5095   -2.0435   -2.2918 C   0  0  0  0  0  0  0  0  0  0  0  0
   15.4186   -3.1695   -3.3231 C   0  0  0  0  0  0  0  0  0  0  0  0
   16.7561   -3.3102   -3.9995 C   0  0  1  0  0  0  0  0  0  0  0  0
   17.7014   -2.2408   -3.5374 C   0  0  0  0  0  0  0  0  0  0  0  0
   17.3263   -4.6935   -3.8322 C   0  0  0  0  0  3  0  0  0  0  0  0
   17.2389   -5.0493   -2.3468 C   0  0  0  0  0  0  0  0  0  0  0  0
   18.0067   -3.9895   -1.5681 C   0  0  0  0  0  0  0  0  0  0  0  0
   19.4734   -4.3224   -1.4896 C   0  0  2  0  0  0  0  0  0  0  0  0
   20.3610   -3.1145   -1.5088 C   0  0  0  0  0  0  0  0  0  0  0  0
   19.8176   -5.3017   -2.5690 C   0  0  0  0  0  3  0  0  0  0  0  0
   21.2806   -5.1081   -2.9254 C   0  0  0  0  0  0  0  0  0  0  0  0
   21.3512   -4.1875   -4.1255 C   0  0  0  0  0  0  0  0  0  0  0  0
   20.9019   -4.9800   -5.3345 C   0  0  0  0  0  0  0  0  0  0  0  0
   20.0363   -6.1114   -4.8334 C   0  0  0  0  0  3  0  0  0  0  0  0
   19.7451   -7.1127   -5.9333 C   0  0  0  0  0  3  0  0  0  0  0  0
   19.1999   -8.3659   -5.2396 C   0  0  0  0  0  3  0  0  0  0  0  0
   18.7031   -9.2785   -6.3102 C   0  0  0  0  0  0  0  0  0  0  0  0
   17.4168   -8.8519   -6.9324 C   0  0  0  0  0  0  0  0  0  0  0  0
   17.5610   -7.7002   -7.8904 C   0  0  0  0  0  0  0  0  0  0  0  0
   16.3819   -6.7919   -7.9196 C   0  0  0  0  0  0  0  0  0  0  0  0
   16.6951   -5.5293   -8.7145 C   0  0  0  0  0  0  0  0  0  0  0  0
   17.9919   -4.8987   -8.2095 C   0  0  0  0  0  3  0  0  0  0  0  0
   17.7884   -3.3953   -8.2408 C   0  0  2  0  0  0  0  0  0  0  0  0
   19.0863   -2.7075   -8.6439 C   0  0  0  0  0  0  0  0  0  0  0  0
   17.4204   -2.8951   -6.8505 C   0  0  0  0  0  3  0  0  0  0  0  0
   16.6863   -1.6177   -6.9438 C   0  0  0  0  0  0  0  0  0  0  0  0
   15.7111   -1.3666   -6.2656 O   0  0  0  0  0  0  0  0  0  0  0  0
  1  2  2  0
  2  3  1  0
  2  4  1  0
  4  5  1  0
  5  6  1  0
  6  7  1  0
  7  8  1  1
  7  9  1  0
  9 10  1  0
 10 11  1  0
 11 12  1  0
 12 13  1  6
 12 14  1  0
 14 15  1  0
 15 16  1  0
 16 17  1  0
 17 18  1  0
 18 19  1  0
 19 20  1  0
 20 21  1  0
 21 22  1  0
 22 23  1  0
 23 24  1  0
 24 25  1  0
 25 26  1  0
 26 27  1  0
 27 28  1  1
 27 29  1  0
 29 30  1  0
 30 31  2  0
M  RAD  7   9   2  14   2  18   2  19   2  20   2  26   2  29   2
M  END
>  <docking_score>  (2) 
1.5369999999999999

$$$$
