
     RDKit          3D

 21 24  0  0  0  0  0  0  0  0999 V2000
   16.3836   -3.2463   -6.6347 C   0  0  0  0  0  0  0  0  0  0  0  0
   16.0448   -3.7133   -5.2359 C   0  0  2  0  0  0  0  0  0  0  0  0
   16.4224   -5.1722   -5.0997 C   0  0  0  0  0  0  0  0  0  0  0  0
   15.8933   -5.8790   -6.3386 C   0  0  0  0  0  0  0  0  0  0  0  0
   14.5947   -5.2704   -6.7289 C   0  0  0  0  0  0  0  0  0  0  0  0
   14.1723   -5.3160   -7.8827 O   0  0  0  0  0  0  0  0  0  0  0  0
   13.7366   -4.5714   -5.7353 C   0  0  0  0  0  0  0  0  0  0  0  0
   14.5637   -3.6102   -4.9489 C   0  0  2  0  0  0  0  0  0  0  0  0
   14.1686   -2.1657   -5.1546 C   0  0  0  0  0  0  0  0  0  0  0  0
   14.8442   -1.3239   -4.0835 C   0  0  0  0  0  0  0  0  0  0  0  0
   15.8420   -2.1341   -3.3032 C   0  0  0  0  0  3  0  0  0  0  0  0
   16.7608   -2.8374   -4.2435 C   0  0  1  0  0  0  0  0  0  0  0  0
   17.8946   -3.5509   -3.6068 C   0  0  2  0  0  0  0  0  0  0  0  0
   17.9271   -3.4890   -2.0740 C   0  0  0  0  0  0  0  0  0  0  0  0
   19.4563   -3.4622   -2.2122 C   0  0  0  0  0  3  0  0  0  0  0  0
   19.9314   -4.8985   -2.4451 C   0  0  0  0  0  0  0  0  0  0  0  0
   19.2198   -2.8073   -3.5806 C   0  0  2  0  0  0  0  0  0  0  0  0
   19.0668   -1.4164   -3.4264 O   0  0  0  0  0  0  0  0  0  0  0  0
   20.0181   -0.8204   -4.2698 C   0  0  2  0  0  0  0  0  0  0  0  0
   21.2828   -0.3546   -3.9256 C   0  0  0  0  0  0  0  0  0  0  0  0
   20.2108    0.5768   -3.9733 O   0  0  0  0  0  0  0  0  0  0  0  0
  2  1  1  6
  2  3  1  0
  3  4  1  0
  4  5  1  0
  5  6  2  0
  5  7  1  0
  8  7  1  6
  8  9  1  0
  9 10  1  0
 10 11  1  0
 12 11  1  1
 12 13  1  0
 13 14  1  1
 14 15  1  0
 15 16  1  0
 15 17  1  0
 17 18  1  1
 19 18  1  1
 19 20  1  0
 20 21  1  0
  8  2  1  0
 12  2  1  0
 17 13  1  0
 21 19  1  0
M  RAD  2  11   2  15   2
M  END
>  <docking_score>  (1) 
-5.1029999999999998

$$$$

     RDKit          3D

 21 24  0  0  0  0  0  0  0  0999 V2000
   17.6845   -4.8247   -6.7720 C   0  0  0  0  0  0  0  0  0  0  0  0
   17.8882   -5.2107   -5.3232 C   0  0  2  0  0  0  0  0  0  0  0  0
   19.2408   -4.7094   -4.8664 C   0  0  0  0  0  0  0  0  0  0  0  0
   20.2374   -5.0874   -5.9518 C   0  0  0  0  0  0  0  0  0  0  0  0
   19.8605   -6.4081   -6.5200 C   0  0  0  0  0  0  0  0  0  0  0  0
   20.1852   -6.7469   -7.6565 O   0  0  0  0  0  0  0  0  0  0  0  0
   19.0666   -7.3912   -5.7358 C   0  0  0  0  0  0  0  0  0  0  0  0
   17.8838   -6.7107   -5.1322 C   0  0  2  0  0  0  0  0  0  0  0  0
   16.5614   -7.2236   -5.6547 C   0  0  0  0  0  0  0  0  0  0  0  0
   15.4522   -6.7014   -4.7548 C   0  0  0  0  0  0  0  0  0  0  0  0
   15.9769   -5.6868   -3.7770 C   0  0  0  0  0  3  0  0  0  0  0  0
   16.7578   -4.6464   -4.5056 C   0  0  1  0  0  0  0  0  0  0  0  0
   17.2035   -3.4960   -3.6821 C   0  0  2  0  0  0  0  0  0  0  0  0
   16.7265   -3.5132   -2.2238 C   0  0  0  0  0  0  0  0  0  0  0  0
   16.6477   -1.9840   -2.3418 C   0  0  0  0  0  3  0  0  0  0  0  0
   18.0626   -1.4266   -2.1677 C   0  0  0  0  0  0  0  0  0  0  0  0
   16.4036   -2.2135   -3.8401 C   0  0  2  0  0  0  0  0  0  0  0  0
   15.0346   -2.4447   -4.0730 O   0  0  0  0  0  0  0  0  0  0  0  0
   14.6881   -1.6640   -5.1875 C   0  0  2  0  0  0  0  0  0  0  0  0
   14.6724   -0.2762   -5.2787 C   0  0  0  0  0  0  0  0  0  0  0  0
   13.4538   -0.9469   -4.9889 O   0  0  0  0  0  0  0  0  0  0  0  0
  2  1  1  6
  2  3  1  0
  3  4  1  0
  4  5  1  0
  5  6  2  0
  5  7  1  0
  8  7  1  6
  8  9  1  0
  9 10  1  0
 10 11  1  0
 12 11  1  1
 12 13  1  0
 13 14  1  1
 14 15  1  0
 15 16  1  0
 15 17  1  0
 17 18  1  1
 19 18  1  1
 19 20  1  0
 20 21  1  0
  8  2  1  0
 12  2  1  0
 17 13  1  0
 21 19  1  0
M  RAD  2  11   2  15   2
M  END
>  <docking_score>  (2) 
-4.9219999999999997

$$$$

     RDKit          3D

 21 24  0  0  0  0  0  0  0  0999 V2000
   18.6013   -3.9532   -3.1750 C   0  0  0  0  0  0  0  0  0  0  0  0
   18.4705   -2.5584   -3.7466 C   0  0  2  0  0  0  0  0  0  0  0  0
   19.8123   -2.1237   -4.2943 C   0  0  0  0  0  0  0  0  0  0  0  0
   20.8499   -2.4703   -3.2371 C   0  0  0  0  0  0  0  0  0  0  0  0
   20.2628   -2.2526   -1.8891 C   0  0  0  0  0  0  0  0  0  0  0  0
   20.6747   -2.8451   -0.8937 O   0  0  0  0  0  0  0  0  0  0  0  0
   19.1401   -1.3004   -1.6773 C   0  0  0  0  0  0  0  0  0  0  0  0
   18.0746   -1.5501   -2.6916 C   0  0  2  0  0  0  0  0  0  0  0  0
   16.7694   -2.0206   -2.0917 C   0  0  0  0  0  0  0  0  0  0  0  0
   15.6887   -1.9308   -3.1578 C   0  0  0  0  0  0  0  0  0  0  0  0
   16.2778   -1.6162   -4.5050 C   0  0  0  0  0  3  0  0  0  0  0  0
   17.3928   -2.5621   -4.7970 C   0  0  1  0  0  0  0  0  0  0  0  0
   17.9638   -2.4661   -6.1627 C   0  0  2  0  0  0  0  0  0  0  0  0
   16.9933   -1.9709   -7.2430 C   0  0  0  0  0  0  0  0  0  0  0  0
   17.7293   -2.9265   -8.1936 C   0  0  0  0  0  3  0  0  0  0  0  0
   19.0217   -2.2394   -8.6412 C   0  0  0  0  0  0  0  0  0  0  0  0
   18.0396   -3.7662   -6.9462 C   0  0  2  0  0  0  0  0  0  0  0  0
   16.9662   -4.6354   -6.6742 O   0  0  0  0  0  0  0  0  0  0  0  0
   17.5385   -5.8583   -6.2888 C   0  0  2  0  0  0  0  0  0  0  0  0
   17.0999   -7.1385   -6.6104 C   0  0  0  0  0  0  0  0  0  0  0  0
   16.7047   -6.5834   -5.3636 O   0  0  0  0  0  0  0  0  0  0  0  0
  2  1  1  1
  2  3  1  0
  3  4  1  0
  4  5  1  0
  5  6  2  0
  5  7  1  0
  8  7  1  1
  8  9  1  0
  9 10  1  0
 10 11  1  0
 12 11  1  1
 12 13  1  0
 13 14  1  6
 14 15  1  0
 15 16  1  0
 15 17  1  0
 17 18  1  1
 19 18  1  6
 19 20  1  0
 20 21  1  0
  8  2  1  0
 12  2  1  0
 17 13  1  0
 21 19  1  0
M  RAD  2  11   2  15   2
M  END
>  <docking_score>  (3) 
-4.6379999999999999

$$$$
