
     RDKit          3D

 26 26  0  0  0  0  0  0  0  0999 V2000
   16.5379   -1.8530   -1.8119 C   0  0  0  0  0  0  0  0  0  0  0  0
   17.7967   -1.8117   -2.6489 C   0  0  1  0  0  0  0  0  0  0  0  0
   18.6047   -3.0399   -2.3817 C   0  0  0  0  0  0  0  0  0  0  0  0
   19.6866   -3.3065   -3.3692 C   0  0  2  0  0  0  0  0  0  0  0  0
   20.9040   -2.7253   -3.0321 O   0  0  0  0  0  0  0  0  0  0  0  0
   19.3364   -2.9661   -4.7838 C   0  0  2  0  0  0  0  0  0  0  0  0
   20.4472   -3.1343   -5.5856 O   0  0  0  0  0  0  0  0  0  0  0  0
   18.7846   -1.5643   -4.8547 C   0  0  1  0  0  0  0  0  0  0  0  0
   18.6653   -1.0732   -6.1305 O   0  0  0  0  0  0  0  0  0  0  0  0
   17.4856   -1.5679   -4.0809 C   0  0  1  0  0  0  0  0  0  0  0  0
   16.6097   -2.5413   -4.6921 N   0  0  0  0  0  0  0  0  0  0  0  0
   15.2562   -2.0948   -4.8538 C   0  0  0  0  0  3  0  0  0  0  0  0
   14.4499   -3.2518   -5.4214 C   0  0  0  0  0  0  0  0  0  0  0  0
   15.1435   -3.8471   -6.6053 C   0  0  0  0  0  3  0  0  0  0  0  0
   14.7605   -3.2275   -7.7777 O   0  0  0  0  0  0  0  0  0  0  0  0
   14.8507   -5.3424   -6.6249 C   0  0  1  0  0  0  0  0  0  0  0  0
   14.0238   -5.6235   -7.7148 O   0  0  0  0  0  0  0  0  0  0  0  0
   16.1545   -6.0401   -6.8581 C   0  0  1  0  0  0  0  0  0  0  0  0
   17.1529   -5.1407   -7.2167 O   0  0  0  0  0  0  0  0  0  0  0  0
   16.5431   -6.7784   -5.5955 C   0  0  2  0  0  0  0  0  0  0  0  0
   15.4958   -6.6972   -4.7099 O   0  0  0  0  0  0  0  0  0  0  0  0
   17.8365   -6.2184   -5.0942 C   0  0  0  0  0  3  0  0  0  0  0  0
   18.3547   -6.8263   -3.8389 C   0  0  0  0  0  0  0  0  0  0  0  0
   18.9890   -8.0284   -3.9940 O   0  0  0  0  0  0  0  0  0  0  0  0
   20.2279   -7.8693   -4.3624 O   0  0  0  0  0  0  0  0  0  0  0  0
   20.8916   -7.2295   -3.4445 O   0  0  0  0  0  0  0  0  0  0  0  0
  2  1  1  1
  2  3  1  0
  3  4  1  0
  4  5  1  1
  4  6  1  0
  6  7  1  6
  6  8  1  0
  8  9  1  6
  8 10  1  0
 10 11  1  6
 11 12  1  0
 12 13  1  0
 13 14  1  0
 14 15  1  0
 14 16  1  0
 16 17  1  6
 16 18  1  0
 18 19  1  1
 18 20  1  0
 20 21  1  1
 20 22  1  0
 22 23  1  0
 23 24  1  0
 24 25  1  0
 25 26  1  0
 10  2  1  0
M  RAD  3  12   2  14   2  22   2
M  END
>  <docking_score>  (1) 
-3.5920000000000001

$$$$

     RDKit          3D

 26 26  0  0  0  0  0  0  0  0999 V2000
   19.4442   -1.1086   -1.6676 C   0  0  0  0  0  0  0  0  0  0  0  0
   19.3009   -0.7995   -3.1410 C   0  0  1  0  0  0  0  0  0  0  0  0
   20.6563   -0.7599   -3.7686 C   0  0  0  0  0  0  0  0  0  0  0  0
   20.6605   -0.8069   -5.2567 C   0  0  2  0  0  0  0  0  0  0  0  0
   20.6130    0.4480   -5.8537 O   0  0  0  0  0  0  0  0  0  0  0  0
   19.6133   -1.6931   -5.8548 C   0  0  2  0  0  0  0  0  0  0  0  0
   19.6298   -1.5618   -7.2287 O   0  0  0  0  0  0  0  0  0  0  0  0
   18.2645   -1.3681   -5.2636 C   0  0  1  0  0  0  0  0  0  0  0  0
   17.2099   -1.9512   -5.9200 O   0  0  0  0  0  0  0  0  0  0  0  0
   18.3362   -1.7207   -3.7949 C   0  0  1  0  0  0  0  0  0  0  0  0
   18.6638   -3.1244   -3.6930 N   0  0  0  0  0  0  0  0  0  0  0  0
   17.6703   -3.9128   -3.0230 C   0  0  0  0  0  3  0  0  0  0  0  0
   17.2474   -5.0272   -3.9666 C   0  0  0  0  0  0  0  0  0  0  0  0
   18.0164   -6.2783   -3.6829 C   0  0  0  0  0  3  0  0  0  0  0  0
   19.2027   -6.0041   -3.0330 O   0  0  0  0  0  0  0  0  0  0  0  0
   18.2408   -7.0072   -5.0023 C   0  0  1  0  0  0  0  0  0  0  0  0
   17.2953   -8.0288   -5.1170 O   0  0  0  0  0  0  0  0  0  0  0  0
   17.9730   -6.0219   -6.0970 C   0  0  1  0  0  0  0  0  0  0  0  0
   19.1298   -5.3395   -6.4580 O   0  0  0  0  0  0  0  0  0  0  0  0
   17.4076   -6.7624   -7.2896 C   0  0  2  0  0  0  0  0  0  0  0  0
   18.4551   -7.1666   -8.0814 O   0  0  0  0  0  0  0  0  0  0  0  0
   16.4084   -5.8804   -7.9690 C   0  0  0  0  0  3  0  0  0  0  0  0
   15.1912   -5.5607   -7.1754 C   0  0  0  0  0  0  0  0  0  0  0  0
   14.5324   -4.4231   -7.5543 O   0  0  0  0  0  0  0  0  0  0  0  0
   14.5137   -3.5418   -6.5956 O   0  0  0  0  0  0  0  0  0  0  0  0
   14.2774   -4.1223   -5.4556 O   0  0  0  0  0  0  0  0  0  0  0  0
  2  1  1  1
  2  3  1  0
  3  4  1  0
  4  5  1  6
  4  6  1  0
  6  7  1  6
  6  8  1  0
  8  9  1  6
  8 10  1  0
 10 11  1  6
 11 12  1  0
 12 13  1  0
 13 14  1  0
 14 15  1  0
 14 16  1  0
 16 17  1  6
 16 18  1  0
 18 19  1  6
 18 20  1  0
 20 21  1  6
 20 22  1  0
 22 23  1  0
 23 24  1  0
 24 25  1  0
 25 26  1  0
 10  2  1  0
M  RAD  3  12   2  14   2  22   2
M  END
>  <docking_score>  (2) 
-3.0169999999999999

$$$$

     RDKit          3D

 26 26  0  0  0  0  0  0  0  0999 V2000
   18.3224   -6.3071   -2.8755 C   0  0  0  0  0  0  0  0  0  0  0  0
   19.2841   -6.2167   -4.0391 C   0  0  1  0  0  0  0  0  0  0  0  0
   18.7334   -6.9903   -5.1927 C   0  0  0  0  0  0  0  0  0  0  0  0
   19.3882   -6.7170   -6.5016 C   0  0  2  0  0  0  0  0  0  0  0  0
   20.4678   -7.5513   -6.7693 O   0  0  0  0  0  0  0  0  0  0  0  0
   19.7856   -5.2897   -6.7131 C   0  0  2  0  0  0  0  0  0  0  0  0
   20.4898   -5.1789   -7.8950 O   0  0  0  0  0  0  0  0  0  0  0  0
   20.5737   -4.7933   -5.5269 C   0  0  1  0  0  0  0  0  0  0  0  0
   21.1895   -3.5840   -5.7301 O   0  0  0  0  0  0  0  0  0  0  0  0
   19.6330   -4.8051   -4.3432 C   0  0  1  0  0  0  0  0  0  0  0  0
   18.5113   -3.9514   -4.6616 N   0  0  0  0  0  0  0  0  0  0  0  0
   18.1739   -3.0144   -3.6292 C   0  0  0  0  0  3  0  0  0  0  0  0
   17.9916   -1.6524   -4.2794 C   0  0  0  0  0  0  0  0  0  0  0  0
   16.7341   -1.6187   -5.0885 C   0  0  0  0  0  3  0  0  0  0  0  0
   16.5351   -0.3775   -5.6588 O   0  0  0  0  0  0  0  0  0  0  0  0
   15.5769   -2.0266   -4.1848 C   0  0  1  0  0  0  0  0  0  0  0  0
   15.1957   -0.9231   -3.4181 O   0  0  0  0  0  0  0  0  0  0  0  0
   14.4261   -2.3728   -5.0776 C   0  0  1  0  0  0  0  0  0  0  0  0
   14.1021   -1.3142   -5.9193 O   0  0  0  0  0  0  0  0  0  0  0  0
   14.7927   -3.5956   -5.8905 C   0  0  2  0  0  0  0  0  0  0  0  0
   15.1053   -3.1874   -7.1647 O   0  0  0  0  0  0  0  0  0  0  0  0
   13.6707   -4.5810   -5.8025 C   0  0  0  0  0  3  0  0  0  0  0  0
   14.0337   -5.9937   -6.0959 C   0  0  0  0  0  0  0  0  0  0  0  0
   15.2065   -6.4208   -5.5360 O   0  0  0  0  0  0  0  0  0  0  0  0
   15.0317   -6.8159   -4.3074 O   0  0  0  0  0  0  0  0  0  0  0  0
   14.4013   -7.9537   -4.2861 O   0  0  0  0  0  0  0  0  0  0  0  0
  2  1  1  1
  2  3  1  0
  3  4  1  0
  4  5  1  1
  4  6  1  0
  6  7  1  6
  6  8  1  0
  8  9  1  6
  8 10  1  0
 10 11  1  6
 11 12  1  0
 12 13  1  0
 13 14  1  0
 14 15  1  0
 14 16  1  0
 16 17  1  1
 16 18  1  0
 18 19  1  6
 18 20  1  0
 20 21  1  6
 20 22  1  0
 22 23  1  0
 23 24  1  0
 24 25  1  0
 25 26  1  0
 10  2  1  0
M  RAD  3  12   2  14   2  22   2
M  END
>  <docking_score>  (3) 
-2.7890000000000001

$$$$
