
     RDKit          3D

 38 39  0  0  0  0  0  0  0  0999 V2000
    3.9566    7.7086    5.1992 C   0  0  0  0  0  0  0  0  0  0  0  0
    4.6388    6.8121    6.2242 C   0  0  2  0  0  0  0  0  0  0  0  0
    3.9569    5.4561    6.2690 C   0  0  0  0  0  0  0  0  0  0  0  0
    4.5501    7.4264    7.6113 C   0  0  0  0  0  0  0  0  0  0  0  0
    3.3853    6.8109    8.3740 C   0  0  0  0  0  0  0  0  0  0  0  0
    3.8732    6.5179    9.7756 C   0  0  0  0  0  0  0  0  0  0  0  0
    3.7908    7.7934   10.5744 C   0  0  1  0  0  0  0  0  0  0  0  0
    2.3682    8.3185   10.5679 C   0  0  0  0  0  0  0  0  0  0  0  0
    4.1375    7.4956   12.0227 C   0  0  0  0  0  0  0  0  0  0  0  0
    3.6928    8.6779   12.8516 C   0  0  0  0  0  0  0  0  0  0  0  0
    4.4806    9.9259   12.4901 C   0  0  0  0  0  0  0  0  0  0  0  0
    5.0417   10.6071   13.7183 C   0  0  0  0  0  3  0  0  0  0  0  0
    4.7666   12.0913   13.5969 C   0  0  0  0  0  3  0  0  0  0  0  0
    5.4319   12.6103   12.3334 C   0  0  0  0  0  2  0  0  0  0  0  0
    5.3682   14.1209   12.3320 C   0  0  0  0  0  3  0  0  0  0  0  0
    4.8992   14.6093   10.9734 C   0  0  0  0  0  3  0  0  0  0  0  0
    5.7437   15.7837   10.5348 C   0  0  0  0  0  0  0  0  0  0  0  0
    5.7450   15.9464    9.0368 C   0  0  0  0  0  0  0  0  0  0  0  0
    6.9678   15.2366    8.4742 C   0  0  0  0  0  0  0  0  0  0  0  0
    6.8515   15.2668    6.9589 C   0  0  0  0  0  0  0  0  0  0  0  0
    6.3032   14.0385    6.5822 O   0  0  0  0  0  0  0  0  0  0  0  0
    4.9184   14.0557    6.5821 C   0  0  0  0  0  0  0  0  0  0  0  0
    4.4055   13.1718    5.4744 C   0  0  0  0  0  0  0  0  0  0  0  0
    5.5002   12.9737    4.4684 C   0  0  2  0  0  0  0  0  0  0  0  0
    5.7548   14.1363    3.7275 O   0  0  0  0  0  0  0  0  0  0  0  0
    5.7942   11.5326    3.9583 S   0  0  2  0  0  0  0  0  0  0  0  0
    6.9060   10.9267    2.7985 C   0  0  0  0  0  0  0  0  0  0  0  0
    6.2145   10.8535    1.4518 C   0  0  1  0  0  0  0  0  0  0  0  0
    5.6749    9.5731    1.3450 O   0  0  0  0  0  0  0  0  0  0  0  0
    5.1431   11.9268    1.4472 C   0  0  0  0  0  3  0  0  0  0  0  0
    4.0688   11.5968    0.6311 O   0  0  0  0  0  0  0  0  0  0  0  0
    2.9504   11.4186    1.4341 C   0  0  0  0  0  0  0  0  0  0  0  0
    3.1560   10.3544    2.3142 O   0  0  0  0  0  0  0  0  0  0  0  0
    3.2443   10.7792    3.6284 C   0  0  1  0  0  0  0  0  0  0  0  0
    2.2702   10.0842    4.3600 O   0  0  0  0  0  0  0  0  0  0  0  0
    4.5917   10.3850    4.1679 C   0  0  2  0  0  0  0  0  0  0  0  0
    4.5185    9.9173    5.6056 C   0  0  0  0  0  0  0  0  0  0  0  0
    3.5659    8.9109    5.7828 O   0  0  0  0  0  0  0  0  0  0  0  0
  1  2  1  0
  2  3  1  1
  2  4  1  0
  4  5  1  0
  5  6  1  0
  6  7  1  0
  7  8  1  1
  7  9  1  0
  9 10  1  0
 10 11  1  0
 11 12  1  0
 12 13  1  0
 13 14  1  0
 14 15  1  0
 15 16  1  0
 16 17  1  0
 17 18  1  0
 18 19  1  0
 19 20  1  0
 20 21  1  0
 21 22  1  0
 22 23  1  0
 23 24  1  0
 24 25  1  6
 24 26  1  0
 26 27  1  6
 27 28  1  0
 28 29  1  1
 28 30  1  0
 30 31  1  0
 31 32  1  0
 32 33  1  0
 33 34  1  0
 34 35  1  1
 34 36  1  0
 36 37  1  1
 37 38  1  0
 38  1  1  0
 36 26  1  0
M  RAD  6  12   2  13   2  14   3  15   2  16   2  30   2
M  END
>  <docking_score>  (1) 
6.673

$$$$

     RDKit          3D

 38 39  0  0  0  0  0  0  0  0999 V2000
    4.6806    9.6638   11.0043 C   0  0  0  0  0  0  0  0  0  0  0  0
    3.6372    8.5855   10.7425 C   0  0  2  0  0  0  0  0  0  0  0  0
    4.0374    7.2927   11.4310 C   0  0  0  0  0  0  0  0  0  0  0  0
    3.5226    8.3063    9.2531 C   0  0  0  0  0  0  0  0  0  0  0  0
    4.3577    7.0860    8.8917 C   0  0  0  0  0  0  0  0  0  0  0  0
    3.5246    6.2336    7.9602 C   0  0  0  0  0  0  0  0  0  0  0  0
    3.6539    6.7995    6.5692 C   0  0  1  0  0  0  0  0  0  0  0  0
    5.1125    6.8314    6.1557 C   0  0  0  0  0  0  0  0  0  0  0  0
    2.9448    5.8794    5.5909 C   0  0  0  0  0  0  0  0  0  0  0  0
    3.3977    6.2553    4.1995 C   0  0  0  0  0  0  0  0  0  0  0  0
    2.9475    7.6612    3.8394 C   0  0  0  0  0  0  0  0  0  0  0  0
    2.2578    7.6991    2.4941 C   0  0  0  0  0  3  0  0  0  0  0  0
    2.8146    8.8727    1.7157 C   0  0  0  0  0  3  0  0  0  0  0  0
    2.5525   10.1478    2.4991 C   0  0  0  0  0  2  0  0  0  0  0  0
    2.8848   11.3361    1.6252 C   0  0  0  0  0  3  0  0  0  0  0  0
    3.7252   12.3265    2.4108 C   0  0  0  0  0  3  0  0  0  0  0  0
    3.2248   13.7306    2.1605 C   0  0  0  0  0  0  0  0  0  0  0  0
    3.5873   14.6651    3.2855 C   0  0  0  0  0  0  0  0  0  0  0  0
    2.4142   14.7368    4.2520 C   0  0  0  0  0  0  0  0  0  0  0  0
    2.8695   15.5426    5.4578 C   0  0  0  0  0  0  0  0  0  0  0  0
    3.2587   14.6145    6.4266 O   0  0  0  0  0  0  0  0  0  0  0  0
    4.5886   14.2481    6.3034 C   0  0  0  0  0  0  0  0  0  0  0  0
    5.1689   13.9971    7.6714 C   0  0  0  0  0  0  0  0  0  0  0  0
    4.3093   14.6798    8.6934 C   0  0  2  0  0  0  0  0  0  0  0  0
    4.4394   16.0749    8.6476 O   0  0  0  0  0  0  0  0  0  0  0  0
    3.8831   13.8849    9.9623 S   0  0  2  0  0  0  0  0  0  0  0  0
    2.9683   14.3296   11.3457 C   0  0  0  0  0  0  0  0  0  0  0  0
    3.9185   14.8046   12.4267 C   0  0  1  0  0  0  0  0  0  0  0  0
    4.2297   13.6924   13.2067 O   0  0  0  0  0  0  0  0  0  0  0  0
    5.1385   15.3690   11.7247 C   0  0  0  0  0  3  0  0  0  0  0  0
    6.2909   15.2491   12.4906 O   0  0  0  0  0  0  0  0  0  0  0  0
    7.1511   14.3688   11.8484 C   0  0  0  0  0  0  0  0  0  0  0  0
    6.5666   13.1037   11.7621 O   0  0  0  0  0  0  0  0  0  0  0  0
    6.2646   12.7611   10.4557 C   0  0  1  0  0  0  0  0  0  0  0  0
    6.9099   11.5464   10.1809 O   0  0  0  0  0  0  0  0  0  0  0  0
    4.7826   12.5268   10.3541 C   0  0  2  0  0  0  0  0  0  0  0  0
    4.4476   11.3616    9.4479 C   0  0  0  0  0  0  0  0  0  0  0  0
    5.1402   10.2022    9.8052 O   0  0  0  0  0  0  0  0  0  0  0  0
  1  2  1  0
  2  3  1  1
  2  4  1  0
  4  5  1  0
  5  6  1  0
  6  7  1  0
  7  8  1  6
  7  9  1  0
  9 10  1  0
 10 11  1  0
 11 12  1  0
 12 13  1  0
 13 14  1  0
 14 15  1  0
 15 16  1  0
 16 17  1  0
 17 18  1  0
 18 19  1  0
 19 20  1  0
 20 21  1  0
 21 22  1  0
 22 23  1  0
 23 24  1  0
 24 25  1  1
 24 26  1  0
 26 27  1  1
 27 28  1  0
 28 29  1  1
 28 30  1  0
 30 31  1  0
 31 32  1  0
 32 33  1  0
 33 34  1  0
 34 35  1  1
 34 36  1  0
 36 37  1  6
 37 38  1  0
 38  1  1  0
 36 26  1  0
M  RAD  6  12   2  13   2  14   3  15   2  16   2  30   2
M  END
>  <docking_score>  (2) 
6.7969999999999997

$$$$
