
     RDKit          3D

 51 53  0  0  0  0  0  0  0  0999 V2000
    4.9205   15.7665    7.5506 C   0  0  0  0  0  0  0  0  0  0  0  0
    4.8966   14.8513    6.3624 C   0  0  0  0  0  0  0  0  0  0  0  0
    3.9007   15.0751    5.2633 C   0  0  0  0  0  0  0  0  0  0  0  0
    3.8767   14.1599    4.0751 C   0  0  0  0  0  0  0  0  0  0  0  0
    2.8808   14.3837    2.9759 O   0  0  0  0  0  0  0  0  0  0  0  0
    4.8486   13.0209    3.9860 C   0  0  0  0  0  0  0  0  0  0  0  0
    4.8246   12.1057    2.7978 O   0  0  0  0  0  0  0  0  0  0  0  0
    5.8446   12.7970    5.0852 C   0  0  0  0  0  0  0  0  0  0  0  0
    6.8165   11.6580    4.9961 O   0  0  0  0  0  0  0  0  0  0  0  0
    5.8685   13.7122    6.2733 C   0  0  0  0  0  0  0  0  0  0  0  0
    6.8644   13.4885    7.3725 N   0  0  0  0  0  0  0  0  0  0  0  0
    6.7973   14.3121    8.6243 C   0  0  0  0  0  3  0  0  0  0  0  0
    5.4946   14.9193    9.0536 C   0  0  0  0  0  0  0  0  0  0  0  0
    4.9066   14.5670   10.3879 C   0  0  0  0  0  0  0  0  0  0  0  0
    4.2503   15.6271   11.2218 O   0  0  0  0  0  0  0  0  0  0  0  0
    4.9748   13.1545   10.8882 C   0  0  0  0  0  0  0  0  0  0  0  0
    4.8199   12.8693   12.3526 O   0  0  0  0  0  0  0  0  0  0  0  0
    5.1980   12.0274    9.9240 C   0  0  0  0  0  0  0  0  0  0  0  0
    6.5914   11.6652    9.5029 O   0  0  0  0  0  0  0  0  0  0  0  0
    4.0277   11.2622    9.3808 C   0  0  0  0  0  0  0  0  0  0  0  0
    3.4224   11.6520    8.0649 O   0  0  0  0  0  0  0  0  0  0  0  0
    3.4628   10.1074   10.1536 C   0  0  0  0  0  0  0  0  0  0  0  0
    2.3157   10.3244   11.0954 O   0  0  0  0  0  0  0  0  0  0  0  0
    4.0451    8.7353    9.9845 O   0  0  0  0  0  0  0  0  0  0  0  0
    3.9654    8.0454    8.6550 C   0  0  0  0  0  3  0  0  0  0  0  0
    5.0777    8.2021    7.6608 C   0  0  0  0  0  0  0  0  0  0  0  0
    5.9199    9.4432    7.6671 O   0  0  0  0  0  0  0  0  0  0  0  0
    5.3477    7.1175    6.6604 C   0  0  0  0  0  3  0  0  0  0  0  0
    5.0792    5.6853    7.0161 O   0  0  0  0  0  0  0  0  0  0  0  0
    3.7868    5.0412    6.6099 C   0  0  0  0  0  0  0  0  0  0  0  0
    2.9029    4.4141    7.6470 C   0  0  0  0  0  2  0  0  0  0  0  0
    3.3784    5.0242    5.1666 C   0  0  0  0  0  0  0  0  0  0  0  0
    4.2859    4.4181    4.1375 C   0  0  0  0  0  0  0  0  0  0  0  0
    4.1790    4.8394    2.7019 C   0  0  0  0  0  0  0  0  0  0  0  0
    3.3393    5.1501    1.4983 O   0  0  0  0  0  0  0  0  0  0  0  0
    4.8333    5.2585    1.4188 C   0  0  0  0  0  0  0  0  0  0  0  0
    6.0735    5.5631    0.6322 C   0  0  0  0  0  0  0  0  0  0  0  0
    7.2741    4.6715    0.7497 O   0  0  0  0  0  0  0  0  0  0  0  0
    6.1134    6.7593   -0.2721 C   0  0  0  0  0  0  0  0  0  0  0  0
    6.5944    6.3566   -1.6346 C   0  0  0  0  0  0  0  0  0  0  0  0
    6.8775    6.9606   -2.9780 C   0  0  0  0  0  0  0  0  0  0  0  0
    6.8304    8.2886   -3.6739 O   0  0  0  0  0  0  0  0  0  0  0  0
    6.4750    9.7192   -3.3965 C   0  0  0  0  0  0  0  0  0  0  0  0
    6.6825   10.5478   -4.6295 O   0  0  0  0  0  0  0  0  0  0  0  0
    5.9776   10.5831   -2.2756 C   0  0  0  0  0  0  0  0  0  0  0  0
    5.5710   10.4760   -0.8357 O   0  0  0  0  0  0  0  0  0  0  0  0
    5.4454    9.4479    0.2494 C   0  0  0  0  0  0  0  0  0  0  0  0
    4.9486   10.0910    1.5102 O   0  0  0  0  0  0  0  0  0  0  0  0
    5.6596    7.9801    0.4720 C   0  0  0  0  0  0  0  0  0  0  0  0
    5.3094    7.6190    1.8852 O   0  0  0  0  0  0  0  0  0  0  0  0
    5.7964    8.4710    3.0196 C   0  0  0  0  0  2  0  0  0  0  0  0
  2  1  1  0
  2  3  1  0
  3  4  1  0
  4  5  1  0
  4  6  1  0
  6  7  1  0
  6  8  1  0
  8  9  1  0
  8 10  1  0
 10 11  1  0
 11 12  1  0
 12 13  1  0
 13 14  1  0
 14 15  1  0
 14 16  1  0
 16 17  1  0
 16 18  1  0
 18 19  1  0
 18 20  1  0
 20 21  1  0
 20 22  1  0
 22 23  1  0
 22 24  1  0
 24 25  1  0
 25 26  1  0
 26 27  1  0
 26 28  1  0
 28 29  1  0
 29 30  1  0
 30 31  1  0
 30 32  1  0
 32 33  1  0
 33 34  1  0
 34 35  1  0
 34 36  1  0
 36 37  1  0
 37 38  1  0
 39 37  1  0
 39 40  1  0
 40 41  2  3
 41 42  1  0
 42 43  1  0
 43 44  1  0
 43 45  1  0
 45 46  1  0
 46 47  1  0
 47 48  1  0
 47 49  1  0
 49 50  1  0
 50 51  1  0
 10  2  1  0
 36 35  1  0
 49 39  1  0
M  RAD  5  12   2  25   2  28   2  31   3  51   3
M  END
>  <docking_score>  (1) 
40.317999999999998

$$$$

     RDKit          3D

 51 53  0  0  0  0  0  0  0  0999 V2000
   17.2104   -4.9970   -1.9135 C   0  0  0  0  0  0  0  0  0  0  0  0
   16.3277   -4.3560   -0.8840 C   0  0  0  0  0  0  0  0  0  0  0  0
   15.5409   -5.2097    0.0658 C   0  0  0  0  0  0  0  0  0  0  0  0
   14.6582   -4.5688    1.0953 C   0  0  0  0  0  0  0  0  0  0  0  0
   13.8714   -5.4226    2.0450 O   0  0  0  0  0  0  0  0  0  0  0  0
   14.5622   -3.0740    1.1750 C   0  0  0  0  0  0  0  0  0  0  0  0
   13.6794   -2.4330    2.2045 O   0  0  0  0  0  0  0  0  0  0  0  0
   15.3489   -2.2202    0.2252 C   0  0  0  0  0  0  0  0  0  0  0  0
   15.2529   -0.7254    0.3050 O   0  0  0  0  0  0  0  0  0  0  0  0
   16.2317   -2.8611   -0.8042 C   0  0  0  0  0  0  0  0  0  0  0  0
   17.0184   -2.0074   -1.7540 N   0  0  0  0  0  0  0  0  0  0  0  0
   16.3058   -1.1382   -2.7474 C   0  0  0  0  0  3  0  0  0  0  0  0
   15.1121   -1.6669   -3.4861 C   0  0  0  0  0  0  0  0  0  0  0  0
   14.9995   -1.4687   -4.9687 C   0  0  0  0  0  0  0  0  0  0  0  0
   15.6633   -2.4327   -5.9068 O   0  0  0  0  0  0  0  0  0  0  0  0
   14.2230   -0.3065   -5.5131 C   0  0  0  0  0  0  0  0  0  0  0  0
   12.7259   -0.3705   -5.5808 O   0  0  0  0  0  0  0  0  0  0  0  0
   14.9436    0.9196   -5.9899 C   0  0  0  0  0  0  0  0  0  0  0  0
   14.1651    2.1264   -6.4230 O   0  0  0  0  0  0  0  0  0  0  0  0
   16.4429    0.9389   -6.0337 C   0  0  0  0  0  0  0  0  0  0  0  0
   17.1522    1.1847   -7.3323 O   0  0  0  0  0  0  0  0  0  0  0  0
   17.2328    0.7123   -4.7788 C   0  0  0  0  0  0  0  0  0  0  0  0
   18.3994    1.5984   -4.4565 O   0  0  0  0  0  0  0  0  0  0  0  0
   16.8561   -0.4005   -3.8461 O   0  0  0  0  0  0  0  0  0  0  0  0
   16.7915   -1.8119   -4.3499 C   0  0  0  0  0  3  0  0  0  0  0  0
   18.0149   -2.4581   -4.9293 C   0  0  0  0  0  0  0  0  0  0  0  0
   18.9740   -3.1855   -4.0344 O   0  0  0  0  0  0  0  0  0  0  0  0
   18.2791   -2.3769   -6.4036 C   0  0  0  0  0  3  0  0  0  0  0  0
   19.2199   -1.3395   -6.9409 O   0  0  0  0  0  0  0  0  0  0  0  0
   20.5590   -1.1357   -6.2964 C   0  0  0  0  0  0  0  0  0  0  0  0
   21.3656    0.0886   -6.6138 C   0  0  0  0  0  2  0  0  0  0  0  0
   21.0915   -2.1561   -5.3345 C   0  0  0  0  0  0  0  0  0  0  0  0
   20.7260   -3.6018   -5.4963 C   0  0  0  0  0  0  0  0  0  0  0  0
   20.6931   -4.5057   -4.2997 C   0  0  0  0  0  0  0  0  0  0  0  0
   21.3740   -5.1038   -3.1044 O   0  0  0  0  0  0  0  0  0  0  0  0
   19.9553   -5.4730   -3.4222 C   0  0  0  0  0  0  0  0  0  0  0  0
   18.7103   -6.2446   -3.0991 C   0  0  0  0  0  0  0  0  0  0  0  0
   18.5582   -6.8947   -1.7558 O   0  0  0  0  0  0  0  0  0  0  0  0
   17.6173   -6.3662   -4.1192 C   0  0  0  0  0  0  0  0  0  0  0  0
   16.7786   -5.1226   -4.1231 C   0  0  0  0  0  0  0  0  0  0  0  0
   15.5847   -4.5442   -4.8230 C   0  0  0  0  0  0  0  0  0  0  0  0
   14.5942   -4.9014   -5.8913 O   0  0  0  0  0  0  0  0  0  0  0  0
   14.2706   -6.0272   -6.8282 C   0  0  0  0  0  0  0  0  0  0  0  0
   13.0743   -5.6737   -7.6612 O   0  0  0  0  0  0  0  0  0  0  0  0
   14.7653   -7.3949   -7.1952 C   0  0  0  0  0  0  0  0  0  0  0  0
   15.8469   -8.3644   -6.8208 O   0  0  0  0  0  0  0  0  0  0  0  0
   17.0092   -8.4822   -5.8799 C   0  0  0  0  0  0  0  0  0  0  0  0
   17.6862   -9.8079   -6.0643 O   0  0  0  0  0  0  0  0  0  0  0  0
   17.7084   -7.6930   -4.8130 C   0  0  0  0  0  0  0  0  0  0  0  0
   18.8638   -8.4790   -4.2675 O   0  0  0  0  0  0  0  0  0  0  0  0
   18.9992   -8.6841   -2.7878 C   0  0  0  0  0  2  0  0  0  0  0  0
  2  1  1  0
  2  3  1  0
  3  4  1  0
  4  5  1  0
  4  6  1  0
  6  7  1  0
  6  8  1  0
  8  9  1  0
  8 10  1  0
 10 11  1  0
 11 12  1  0
 12 13  1  0
 13 14  1  0
 14 15  1  0
 14 16  1  0
 16 17  1  0
 16 18  1  0
 18 19  1  0
 18 20  1  0
 20 21  1  0
 20 22  1  0
 22 23  1  0
 22 24  1  0
 24 25  1  0
 25 26  1  0
 26 27  1  0
 26 28  1  0
 28 29  1  0
 29 30  1  0
 30 31  1  0
 30 32  1  0
 32 33  1  0
 33 34  1  0
 34 35  1  0
 34 36  1  0
 36 37  1  0
 37 38  1  0
 39 37  1  0
 39 40  1  0
 40 41  2  3
 41 42  1  0
 42 43  1  0
 43 44  1  0
 43 45  1  0
 45 46  1  0
 46 47  1  0
 47 48  1  0
 47 49  1  0
 49 50  1  0
 50 51  1  0
 10  2  1  0
 36 35  1  0
 49 39  1  0
M  RAD  5  12   2  25   2  28   2  31   3  51   3
M  END
>  <docking_score>  (2) 
41.442

$$$$

     RDKit          3D

 51 53  0  0  0  0  0  0  0  0999 V2000
   17.6394   -0.2131    5.0448 C   0  0  0  0  0  0  0  0  0  0  0  0
   16.2084   -0.4475    5.4283 C   0  0  0  0  0  0  0  0  0  0  0  0
   15.5595    0.4164    6.4688 C   0  0  0  0  0  0  0  0  0  0  0  0
   14.1284    0.1819    6.8523 C   0  0  0  0  0  0  0  0  0  0  0  0
   13.4796    1.0459    7.8928 O   0  0  0  0  0  0  0  0  0  0  0  0
   13.3462   -0.9164    6.1953 C   0  0  0  0  0  0  0  0  0  0  0  0
   11.9152   -1.1509    6.5788 O   0  0  0  0  0  0  0  0  0  0  0  0
   13.9950   -1.7804    5.1548 C   0  0  0  0  0  0  0  0  0  0  0  0
   13.2128   -2.8788    4.4979 O   0  0  0  0  0  0  0  0  0  0  0  0
   15.4261   -1.5460    4.7713 C   0  0  0  0  0  0  0  0  0  0  0  0
   16.0750   -2.4099    3.7309 N   0  0  0  0  0  0  0  0  0  0  0  0
   15.5179   -2.4539    2.3389 C   0  0  0  0  0  3  0  0  0  0  0  0
   16.1727   -1.6652    1.2438 C   0  0  0  0  0  0  0  0  0  0  0  0
   15.3314   -0.9408    0.2351 C   0  0  0  0  0  0  0  0  0  0  0  0
   14.3699    0.1198    0.6833 O   0  0  0  0  0  0  0  0  0  0  0  0
   15.4514   -1.2770   -1.2218 C   0  0  0  0  0  0  0  0  0  0  0  0
   15.7740   -0.2009   -2.2157 O   0  0  0  0  0  0  0  0  0  0  0  0
   15.2489   -2.6893   -1.6848 C   0  0  0  0  0  0  0  0  0  0  0  0
   14.8724   -3.7552   -0.6988 O   0  0  0  0  0  0  0  0  0  0  0  0
   15.4229   -3.0358   -3.1338 C   0  0  0  0  0  0  0  0  0  0  0  0
   14.9874   -2.0681   -4.1939 O   0  0  0  0  0  0  0  0  0  0  0  0
   16.0323   -4.3501   -3.5227 C   0  0  0  0  0  0  0  0  0  0  0  0
   15.5235   -5.0859   -4.7267 O   0  0  0  0  0  0  0  0  0  0  0  0
   17.1507   -4.9287   -2.7075 O   0  0  0  0  0  0  0  0  0  0  0  0
   18.0899   -5.9237   -3.3222 C   0  0  0  0  0  3  0  0  0  0  0  0
   17.7398   -6.5801   -4.6248 C   0  0  0  0  0  0  0  0  0  0  0  0
   17.7327   -8.0761   -4.7327 O   0  0  0  0  0  0  0  0  0  0  0  0
   17.3968   -5.7403   -5.8194 C   0  0  0  0  0  3  0  0  0  0  0  0
   18.4771   -5.3026   -6.7636 O   0  0  0  0  0  0  0  0  0  0  0  0
   18.9120   -3.8673   -6.7921 C   0  0  0  0  0  0  0  0  0  0  0  0
   17.8886   -2.7754   -6.8943 C   0  0  0  0  0  2  0  0  0  0  0  0
   20.3704   -3.5239   -6.7184 C   0  0  0  0  0  0  0  0  0  0  0  0
   21.2678   -4.2626   -5.7704 C   0  0  0  0  0  0  0  0  0  0  0  0
   21.0295   -4.1777   -4.2919 C   0  0  0  0  0  0  0  0  0  0  0  0
   21.2100   -4.7392   -2.9127 O   0  0  0  0  0  0  0  0  0  0  0  0
   20.4364   -3.4693   -3.1102 C   0  0  0  0  0  0  0  0  0  0  0  0
   19.6474   -2.3271   -2.5420 C   0  0  0  0  0  0  0  0  0  0  0  0
   18.6504   -2.5747   -1.4490 O   0  0  0  0  0  0  0  0  0  0  0  0
   19.8555   -0.9373   -3.0667 C   0  0  0  0  0  0  0  0  0  0  0  0
   19.4270   -0.8616   -4.5022 C   0  0  0  0  0  0  0  0  0  0  0  0
   19.3413    0.1295   -5.6249 C   0  0  0  0  0  0  0  0  0  0  0  0
   19.6385    1.5719   -5.9096 O   0  0  0  0  0  0  0  0  0  0  0  0
   20.1795    2.7909   -5.2230 C   0  0  0  0  0  0  0  0  0  0  0  0
   20.1931    3.9514   -6.1732 O   0  0  0  0  0  0  0  0  0  0  0  0
   20.7112    3.2160   -3.8864 C   0  0  0  0  0  0  0  0  0  0  0  0
   20.9848    2.6483   -2.5251 O   0  0  0  0  0  0  0  0  0  0  0  0
   20.8722    1.3535   -1.7762 C   0  0  0  0  0  0  0  0  0  0  0  0
   21.3597    1.5308   -0.3688 O   0  0  0  0  0  0  0  0  0  0  0  0
   20.4262   -0.0626   -1.9902 C   0  0  0  0  0  0  0  0  0  0  0  0
   20.6086   -0.8540   -0.7290 O   0  0  0  0  0  0  0  0  0  0  0  0
   20.8118   -2.3386   -0.7980 C   0  0  0  0  0  2  0  0  0  0  0  0
  2  1  1  0
  2  3  1  0
  3  4  1  0
  4  5  1  0
  4  6  1  0
  6  7  1  0
  6  8  1  0
  8  9  1  0
  8 10  1  0
 10 11  1  0
 11 12  1  0
 12 13  1  0
 13 14  1  0
 14 15  1  0
 14 16  1  0
 16 17  1  0
 16 18  1  0
 18 19  1  0
 18 20  1  0
 20 21  1  0
 20 22  1  0
 22 23  1  0
 22 24  1  0
 24 25  1  0
 25 26  1  0
 26 27  1  0
 26 28  1  0
 28 29  1  0
 29 30  1  0
 30 31  1  0
 30 32  1  0
 32 33  1  0
 33 34  1  0
 34 35  1  0
 34 36  1  0
 36 37  1  0
 37 38  1  0
 39 37  1  0
 39 40  1  0
 40 41  2  3
 41 42  1  0
 42 43  1  0
 43 44  1  0
 43 45  1  0
 45 46  1  0
 46 47  1  0
 47 48  1  0
 47 49  1  0
 49 50  1  0
 50 51  1  0
 10  2  1  0
 36 35  1  0
 49 39  1  0
M  RAD  5  12   2  25   2  28   2  31   3  51   3
M  END
>  <docking_score>  (3) 
42.747999999999998

$$$$
