
     RDKit          3D

 20 19  0  0  0  0  0  0  0  0999 V2000
   21.3616   -5.3978   -2.1589 C   0  0  0  0  0  0  0  0  0  0  0  0
   20.3646   -4.5677   -2.9550 C   0  0  0  0  0  0  0  0  0  0  0  0
   20.6306   -4.6975   -4.4303 C   0  0  0  0  0  0  0  0  0  0  0  0
   20.3749   -3.1289   -2.5384 C   0  0  0  0  0  0  0  0  0  0  0  0
   19.0406   -2.6710   -2.0467 C   0  0  0  0  0  0  0  0  0  0  0  0
   18.3390   -1.7851   -3.0406 C   0  0  0  0  0  0  0  0  0  0  0  0
   16.8873   -2.3010   -3.1710 C   0  0  1  0  0  0  0  0  0  0  0  0
   16.1475   -1.5779   -2.0384 C   0  0  0  0  0  0  0  0  0  0  0  0
   16.4128   -1.8936   -4.5061 C   0  0  0  0  0  3  0  0  0  0  0  0
   15.1702   -2.3868   -5.0512 C   0  0  0  0  0  0  0  0  0  0  0  0
   15.1028   -3.4663   -6.0279 C   0  0  0  0  0  0  0  0  0  0  0  0
   14.5475   -4.7266   -5.4569 C   0  0  1  0  0  0  0  0  0  0  0  0
   13.1264   -4.9970   -5.9292 C   0  0  0  0  0  0  0  0  0  0  0  0
   15.4556   -5.8792   -5.8591 C   0  0  0  0  0  0  0  0  0  0  0  0
   16.8383   -5.5617   -5.3944 C   0  0  1  0  0  0  0  0  0  0  0  0
   17.1196   -5.9776   -3.9810 C   0  0  0  0  0  0  0  0  0  0  0  0
   17.9012   -6.0205   -6.3577 C   0  0  0  0  0  0  0  0  0  0  0  0
   17.5107   -5.9377   -7.7801 C   0  0  0  0  0  0  0  0  0  0  0  0
   17.7250   -4.6046   -8.4269 C   0  0  0  0  0  0  0  0  0  0  0  0
   18.4076   -3.7094   -7.6441 F   0  0  0  0  0  0  0  0  0  0  0  0
  1  2  1  0
  2  3  1  0
  2  4  1  0
  4  5  1  0
  5  6  1  0
  6  7  1  0
  7  8  1  1
  7  9  1  0
  9 10  1  0
 10 11  1  0
 11 12  1  0
 12 13  1  6
 12 14  1  0
 14 15  1  0
 15 16  1  1
 15 17  1  0
 17 18  1  0
 18 19  1  0
 19 20  1  0
M  RAD  1   9   2
M  END
>  <docking_score>  (1) 
-2.964

$$$$

     RDKit          3D

 20 19  0  0  0  0  0  0  0  0999 V2000
   15.1642   -5.9559   -6.2119 C   0  0  0  0  0  0  0  0  0  0  0  0
   15.3950   -5.0344   -7.4012 C   0  0  0  0  0  0  0  0  0  0  0  0
   16.1334   -5.7594   -8.4936 C   0  0  0  0  0  0  0  0  0  0  0  0
   16.1213   -3.7845   -7.0087 C   0  0  0  0  0  0  0  0  0  0  0  0
   15.1993   -2.6207   -6.8435 C   0  0  0  0  0  0  0  0  0  0  0  0
   14.7262   -2.4641   -5.4234 C   0  0  0  0  0  0  0  0  0  0  0  0
   15.4700   -1.2487   -4.8232 C   0  0  1  0  0  0  0  0  0  0  0  0
   14.5708   -0.8192   -3.6569 C   0  0  0  0  0  0  0  0  0  0  0  0
   16.7849   -1.7393   -4.3716 C   0  0  0  0  0  3  0  0  0  0  0  0
   17.0864   -1.9177   -2.9710 C   0  0  0  0  0  0  0  0  0  0  0  0
   16.4735   -2.9550   -2.1511 C   0  0  0  0  0  0  0  0  0  0  0  0
   17.2827   -4.2063   -2.1044 C   0  0  1  0  0  0  0  0  0  0  0  0
   16.7511   -5.2728   -3.0506 C   0  0  0  0  0  0  0  0  0  0  0  0
   18.7208   -3.8640   -2.4644 C   0  0  0  0  0  0  0  0  0  0  0  0
   19.1722   -4.8182   -3.5200 C   0  0  1  0  0  0  0  0  0  0  0  0
   19.5137   -4.1677   -4.8276 C   0  0  0  0  0  0  0  0  0  0  0  0
   20.2465   -5.7587   -3.0407 C   0  0  0  0  0  0  0  0  0  0  0  0
   20.8248   -6.6126   -4.0985 C   0  0  0  0  0  0  0  0  0  0  0  0
   20.1915   -7.9605   -4.2516 C   0  0  0  0  0  0  0  0  0  0  0  0
   19.2431   -8.2410   -3.3020 F   0  0  0  0  0  0  0  0  0  0  0  0
  1  2  1  0
  2  3  1  0
  2  4  1  0
  4  5  1  0
  5  6  1  0
  6  7  1  0
  7  8  1  1
  7  9  1  0
  9 10  1  0
 10 11  1  0
 11 12  1  0
 12 13  1  6
 12 14  1  0
 14 15  1  0
 15 16  1  6
 15 17  1  0
 17 18  1  0
 18 19  1  0
 19 20  1  0
M  RAD  1   9   2
M  END
>  <docking_score>  (2) 
-2.8439999999999999

$$$$

     RDKit          3D

 20 19  0  0  0  0  0  0  0  0999 V2000
   20.2903   -1.0240   -6.8037 C   0  0  0  0  0  0  0  0  0  0  0  0
   19.2226   -1.8941   -6.1559 C   0  0  0  0  0  0  0  0  0  0  0  0
   18.4655   -1.1126   -5.1167 C   0  0  0  0  0  0  0  0  0  0  0  0
   19.8009   -3.1428   -5.5641 C   0  0  0  0  0  0  0  0  0  0  0  0
   20.5628   -3.9460   -6.5672 C   0  0  0  0  0  0  0  0  0  0  0  0
   20.4203   -5.4269   -6.3400 C   0  0  0  0  0  0  0  0  0  0  0  0
   19.4927   -5.9744   -7.4493 C   0  0  1  0  0  0  0  0  0  0  0  0
   20.3910   -6.9535   -8.2159 C   0  0  0  0  0  0  0  0  0  0  0  0
   18.3731   -6.6498   -6.7683 C   0  0  0  0  0  3  0  0  0  0  0  0
   17.0791   -6.7881   -7.3934 C   0  0  0  0  0  0  0  0  0  0  0  0
   16.0848   -5.7227   -7.4081 C   0  0  0  0  0  0  0  0  0  0  0  0
   16.5944   -4.4502   -6.8220 C   0  0  1  0  0  0  0  0  0  0  0  0
   16.2064   -3.2360   -7.6532 C   0  0  0  0  0  0  0  0  0  0  0  0
   16.0391   -4.3123   -5.4122 C   0  0  0  0  0  0  0  0  0  0  0  0
   14.8952   -3.3541   -5.4581 C   0  0  1  0  0  0  0  0  0  0  0  0
   13.5468   -4.0109   -5.4729 C   0  0  0  0  0  0  0  0  0  0  0  0
   14.9999   -2.2650   -4.4232 C   0  0  0  0  0  0  0  0  0  0  0  0
   13.9874   -1.1976   -4.5578 C   0  0  0  0  0  0  0  0  0  0  0  0
   14.1775   -0.2774   -5.7234 C   0  0  0  0  0  0  0  0  0  0  0  0
   15.4035    0.3356   -5.7545 F   0  0  0  0  0  0  0  0  0  0  0  0
  1  2  1  0
  2  3  1  0
  2  4  1  0
  4  5  1  0
  5  6  1  0
  6  7  1  0
  7  8  1  6
  7  9  1  0
  9 10  1  0
 10 11  1  0
 11 12  1  0
 12 13  1  6
 12 14  1  0
 14 15  1  0
 15 16  1  1
 15 17  1  0
 17 18  1  0
 18 19  1  0
 19 20  1  0
M  RAD  1   9   2
M  END
>  <docking_score>  (3) 
-2.4239999999999999

$$$$
