
     RDKit          3D

 22 21  0  0  0  0  0  0  0  0999 V2000
   20.7995   -1.7364   -3.4182 C   0  0  0  0  0  0  0  0  0  0  0  0
   19.6397   -1.8972   -2.9534 N   0  0  0  0  0  0  0  0  0  0  0  0
   19.3108   -3.0849   -2.2209 C   0  0  0  0  0  0  0  0  0  0  0  0
   20.0960   -3.1215   -0.9425 C   0  0  0  0  0  0  0  0  0  0  0  0
   19.6545   -4.2833   -3.0981 C   0  0  0  0  0  0  0  0  0  0  0  0
   17.9089   -3.1082   -1.9728 N   0  0  0  0  0  0  0  0  0  0  0  0
   17.3779   -4.3221   -1.8778 O   0  0  0  0  0  0  0  0  0  0  0  0
   17.1352   -2.1121   -2.6042 C   0  0  0  0  0  0  0  0  0  0  0  0
   16.4482   -2.4720   -3.7246 O   0  0  0  0  0  0  0  0  0  0  0  0
   16.3878   -1.5464   -4.7293 C   0  0  0  0  0  3  0  0  0  0  0  0
   15.2909   -1.7390   -5.7188 C   0  0  1  0  0  0  0  0  0  0  0  0
   14.4498   -0.4763   -5.7558 C   0  0  0  0  0  0  0  0  0  0  0  0
   15.7901   -2.0546   -7.1113 C   0  0  0  0  0  2  0  0  0  0  0  0
   14.4045   -2.8720   -5.2609 C   0  0  0  0  0  0  0  0  0  0  0  0
   14.2907   -3.9845   -6.2520 C   0  0  0  0  0  0  0  0  0  0  0  0
   13.5741   -5.1999   -5.6811 C   0  0  0  0  0  0  0  0  0  0  0  0
   14.6275   -6.2642   -5.4135 C   0  0  0  0  0  0  0  0  0  0  0  0
   15.7265   -6.0452   -6.4294 C   0  0  0  0  0  0  0  0  0  0  0  0
   17.0612   -6.4339   -5.8269 C   0  0  0  0  0  0  0  0  0  0  0  0
   17.0527   -7.8759   -5.4042 C   0  0  0  0  0  0  0  0  0  0  0  0
   17.8851   -8.6610   -6.3350 C   0  0  0  0  0  0  0  0  0  0  0  0
   17.4910   -9.7234   -6.7907 O   0  0  0  0  0  0  0  0  0  0  0  0
  1  2  2  0
  2  3  1  0
  3  4  1  0
  3  5  1  0
  3  6  1  0
  6  7  1  0
  6  8  1  0
  8  9  1  0
  9 10  1  0
 10 11  1  0
 11 12  1  6
 11 13  1  0
 11 14  1  0
 14 15  1  0
 15 16  1  0
 16 17  1  0
 17 18  1  0
 18 19  1  0
 19 20  1  0
 20 21  1  0
 21 22  2  0
M  RAD  2  10   2  13   3
M  END
>  <docking_score>  (1) 
-3.8500000000000001

$$$$

     RDKit          3D

 22 21  0  0  0  0  0  0  0  0999 V2000
   19.2484   -7.7472   -8.1542 C   0  0  0  0  0  0  0  0  0  0  0  0
   19.4546   -7.2093   -7.0338 N   0  0  0  0  0  0  0  0  0  0  0  0
   18.4025   -6.5007   -6.3655 C   0  0  0  0  0  0  0  0  0  0  0  0
   17.1529   -7.3317   -6.3719 C   0  0  0  0  0  0  0  0  0  0  0  0
   18.1799   -5.1883   -7.1084 C   0  0  0  0  0  0  0  0  0  0  0  0
   18.8164   -6.1913   -5.0388 N   0  0  0  0  0  0  0  0  0  0  0  0
   17.8646   -6.2935   -4.1179 O   0  0  0  0  0  0  0  0  0  0  0  0
   19.7475   -5.1421   -4.8919 C   0  0  0  0  0  0  0  0  0  0  0  0
   19.3600   -4.0619   -4.1570 O   0  0  0  0  0  0  0  0  0  0  0  0
   20.1369   -3.7460   -3.0771 C   0  0  0  0  0  3  0  0  0  0  0  0
   19.4371   -3.0511   -1.9603 C   0  0  1  0  0  0  0  0  0  0  0  0
   20.2329   -3.2669   -0.6862 C   0  0  0  0  0  0  0  0  0  0  0  0
   19.2564   -1.5683   -2.1982 C   0  0  0  0  0  2  0  0  0  0  0  0
   18.0754   -3.6732   -1.7662 C   0  0  0  0  0  0  0  0  0  0  0  0
   16.9430   -2.7276   -2.0039 C   0  0  0  0  0  0  0  0  0  0  0  0
   16.0724   -3.1478   -3.1795 C   0  0  0  0  0  0  0  0  0  0  0  0
   15.3861   -1.8967   -3.7066 C   0  0  0  0  0  0  0  0  0  0  0  0
   15.1022   -2.1477   -5.1709 C   0  0  0  0  0  0  0  0  0  0  0  0
   14.2619   -3.3997   -5.3191 C   0  0  0  0  0  0  0  0  0  0  0  0
   14.6508   -4.1561   -6.5579 C   0  0  0  0  0  0  0  0  0  0  0  0
   13.7798   -5.3381   -6.7001 C   0  0  0  0  0  0  0  0  0  0  0  0
   13.3683   -5.6902   -7.7946 O   0  0  0  0  0  0  0  0  0  0  0  0
  1  2  2  0
  2  3  1  0
  3  4  1  0
  3  5  1  0
  3  6  1  0
  6  7  1  0
  6  8  1  0
  8  9  1  0
  9 10  1  0
 10 11  1  0
 11 12  1  1
 11 13  1  0
 11 14  1  0
 14 15  1  0
 15 16  1  0
 16 17  1  0
 17 18  1  0
 18 19  1  0
 19 20  1  0
 20 21  1  0
 21 22  2  0
M  RAD  2  10   2  13   3
M  END
>  <docking_score>  (2) 
-3.4830000000000001

$$$$

     RDKit          3D

 22 21  0  0  0  0  0  0  0  0999 V2000
   18.5321   -7.5110   -7.4568 C   0  0  0  0  0  0  0  0  0  0  0  0
   18.8731   -7.7497   -6.2678 N   0  0  0  0  0  0  0  0  0  0  0  0
   20.0107   -7.0922   -5.6943 C   0  0  0  0  0  0  0  0  0  0  0  0
   20.4034   -5.9254   -6.5524 C   0  0  0  0  0  0  0  0  0  0  0  0
   21.1447   -8.1079   -5.6153 C   0  0  0  0  0  0  0  0  0  0  0  0
   19.6941   -6.6814   -4.3683 N   0  0  0  0  0  0  0  0  0  0  0  0
   20.5978   -7.0077   -3.4509 O   0  0  0  0  0  0  0  0  0  0  0  0
   18.3369   -6.7460   -3.9899 C   0  0  0  0  0  0  0  0  0  0  0  0
   17.9717   -6.0795   -2.8589 O   0  0  0  0  0  0  0  0  0  0  0  0
   17.0595   -5.0721   -3.0097 C   0  0  0  0  0  3  0  0  0  0  0  0
   17.6066   -3.6888   -2.9273 C   0  0  1  0  0  0  0  0  0  0  0  0
   18.5679   -3.6212   -1.7549 C   0  0  0  0  0  0  0  0  0  0  0  0
   18.3166   -3.2502   -4.1889 C   0  0  0  0  0  2  0  0  0  0  0  0
   16.4768   -2.7252   -2.6553 C   0  0  0  0  0  0  0  0  0  0  0  0
   16.1924   -1.7963   -3.7909 C   0  0  0  0  0  0  0  0  0  0  0  0
   14.8383   -2.0617   -4.4332 C   0  0  0  0  0  0  0  0  0  0  0  0
   15.0418   -2.0565   -5.9407 C   0  0  0  0  0  0  0  0  0  0  0  0
   15.1552   -3.5044   -6.3634 C   0  0  0  0  0  0  0  0  0  0  0  0
   14.2319   -4.3558   -5.5159 C   0  0  0  0  0  0  0  0  0  0  0  0
   13.8991   -5.6405   -6.2205 C   0  0  0  0  0  0  0  0  0  0  0  0
   13.8347   -5.3961   -7.6738 C   0  0  0  0  0  0  0  0  0  0  0  0
   12.7723   -5.4415   -8.2745 O   0  0  0  0  0  0  0  0  0  0  0  0
  1  2  2  0
  2  3  1  0
  3  4  1  0
  3  5  1  0
  3  6  1  0
  6  7  1  0
  6  8  1  0
  8  9  1  0
  9 10  1  0
 10 11  1  0
 11 12  1  1
 11 13  1  0
 11 14  1  0
 14 15  1  0
 15 16  1  0
 16 17  1  0
 17 18  1  0
 18 19  1  0
 19 20  1  0
 20 21  1  0
 21 22  2  0
M  RAD  2  10   2  13   3
M  END
>  <docking_score>  (3) 
-3.4510000000000001

$$$$
