
     RDKit          3D

 28 29  0  0  0  0  0  0  0  0999 V2000
    3.1394   11.1823   12.4452 C   0  0  0  0  0  0  0  0  0  0  0  0
    4.3038   10.2967   12.4417 C   0  0  0  0  0  0  0  0  0  0  0  0
    4.8574    9.6834   11.4185 C   0  0  0  0  0  0  0  0  0  0  0  0
    6.2813    8.6667   11.7567 Cl  0  0  0  0  0  0  0  0  0  0  0  0
    4.3985    9.7684   10.0479 C   0  0  0  0  0  0  0  0  0  0  0  0
    4.0723   10.8132    9.3598 C   0  0  0  0  0  0  0  0  0  0  0  0
    4.1261   12.1739    9.9238 C   0  0  0  0  0  0  0  0  0  0  0  0
    5.4373   12.3150   10.6406 C   0  0  0  0  0  0  0  0  0  0  0  0
    5.5651   13.1004   11.6911 C   0  0  0  0  0  0  0  0  0  0  0  0
    7.1524   13.2538   12.5405 S   0  0  0  0  0  0  0  0  0  0  0  0
    7.5093   15.0029   12.8826 C   0  0  0  0  0  0  0  0  0  0  0  0
    7.7089   15.7192   11.5807 C   0  0  0  0  0  0  0  0  0  0  0  0
    9.1368   15.6782   11.1731 C   0  0  0  0  0  0  0  0  0  0  0  0
    9.9972   15.3035   11.9835 O   0  0  0  0  0  0  0  0  0  0  0  0
    4.1228   14.0066   12.2459 S   0  0  0  0  0  0  0  0  0  0  0  0
    3.4236   13.2273   13.6948 C   0  0  0  0  0  0  0  0  0  0  0  0
    3.0133   11.9677   13.6934 C   0  0  0  0  0  0  0  0  0  0  0  0
    3.6306   10.7283    7.9800 N   0  0  0  0  0  0  0  0  0  0  0  0
    4.6235   10.9253    6.9630 C   0  0  0  0  0  0  0  0  0  0  0  0
    5.1126   12.1846    6.6720 C   0  0  0  0  0  0  0  0  0  0  0  0
    6.0496   12.3756    5.7039 C   0  0  0  0  0  0  0  0  0  0  0  0
    6.5318   11.2829    4.9863 C   0  0  0  0  0  0  0  0  0  0  0  0
    7.8490   11.5802    3.6314 Br  0  0  0  0  0  0  0  0  0  0  0  0
    6.0486   10.0240    5.2697 C   0  0  0  0  0  0  0  0  0  0  0  0
    5.0950    9.8446    6.2577 C   0  0  0  0  0  0  0  0  0  0  0  0
    4.5785    8.4896    6.5674 C   0  0  0  0  0  0  0  0  0  0  0  0
    3.8453    7.9100    5.3883 C   0  0  0  0  0  0  0  0  0  0  0  0
    4.8019    6.5359    4.7557 Cl  0  0  0  0  0  0  0  0  0  0  0  0
  1  2  1  0
  2  3  2  3
  3  4  1  0
  3  5  1  0
  5  6  2  3
  6  7  1  0
  7  8  1  0
  8  9  2  3
  9 10  1  0
 10 11  1  0
 11 12  1  0
 12 13  1  0
 13 14  2  0
  9 15  1  0
 15 16  1  0
 16 17  2  3
  6 18  1  0
 18 19  1  0
 19 20  2  0
 20 21  1  0
 21 22  2  0
 22 23  1  0
 22 24  1  0
 24 25  2  0
 25 26  1  0
 26 27  1  0
 27 28  1  0
 17  1  1  0
 25 19  1  0
M  END
>  <docking_score>  (1) 
-3.7559999999999998

$$$$

     RDKit          3D

 28 29  0  0  0  0  0  0  0  0999 V2000
   15.6694   -5.4271   -6.1850 C   0  0  0  0  0  0  0  0  0  0  0  0
   16.4073   -6.3881   -7.0048 C   0  0  0  0  0  0  0  0  0  0  0  0
   17.3349   -6.1471   -7.9054 C   0  0  0  0  0  0  0  0  0  0  0  0
   18.0443   -7.5558   -8.7350 Cl  0  0  0  0  0  0  0  0  0  0  0  0
   17.8177   -4.8327   -8.2738 C   0  0  0  0  0  0  0  0  0  0  0  0
   18.1764   -3.8519   -7.5117 C   0  0  0  0  0  0  0  0  0  0  0  0
   18.1385   -3.9447   -6.0412 C   0  0  0  0  0  0  0  0  0  0  0  0
   18.7534   -5.2584   -5.6548 C   0  0  0  0  0  0  0  0  0  0  0  0
   18.3713   -5.9036   -4.5711 C   0  0  0  0  0  0  0  0  0  0  0  0
   19.1233   -7.4849   -4.1258 S   0  0  0  0  0  0  0  0  0  0  0  0
   18.9149   -8.6775   -5.4815 C   0  0  0  0  0  0  0  0  0  0  0  0
   17.5624   -9.3135   -5.3623 C   0  0  0  0  0  0  0  0  0  0  0  0
   17.2758  -10.1624   -6.5472 C   0  0  0  0  0  0  0  0  0  0  0  0
   16.5627  -11.1693   -6.4243 O   0  0  0  0  0  0  0  0  0  0  0  0
   17.0904   -5.1658   -3.5589 S   0  0  0  0  0  0  0  0  0  0  0  0
   15.5291   -5.9889   -3.8421 C   0  0  0  0  0  0  0  0  0  0  0  0
   14.9715   -6.0571   -5.0418 C   0  0  0  0  0  0  0  0  0  0  0  0
   18.6457   -2.5858   -8.0437 N   0  0  0  0  0  0  0  0  0  0  0  0
   19.1835   -1.6423   -7.1059 C   0  0  0  0  0  0  0  0  0  0  0  0
   20.5431   -1.4101   -7.0211 C   0  0  0  0  0  0  0  0  0  0  0  0
   21.0568   -0.5207   -6.1287 C   0  0  0  0  0  0  0  0  0  0  0  0
   20.1999    0.1756   -5.2787 C   0  0  0  0  0  0  0  0  0  0  0  0
   20.9490    1.4203   -4.0342 Br  0  0  0  0  0  0  0  0  0  0  0  0
   18.8429   -0.0507   -5.3562 C   0  0  0  0  0  0  0  0  0  0  0  0
   18.3343   -0.9589   -6.2694 C   0  0  0  0  0  0  0  0  0  0  0  0
   16.8738   -1.1992   -6.3577 C   0  0  0  0  0  0  0  0  0  0  0  0
   16.1317   -0.3919   -5.3274 C   0  0  0  0  0  0  0  0  0  0  0  0
   15.0065   -1.4847   -4.4652 Cl  0  0  0  0  0  0  0  0  0  0  0  0
  1  2  1  0
  2  3  2  3
  3  4  1  0
  3  5  1  0
  5  6  2  3
  6  7  1  0
  7  8  1  0
  8  9  2  3
  9 10  1  0
 10 11  1  0
 11 12  1  0
 12 13  1  0
 13 14  2  0
  9 15  1  0
 15 16  1  0
 16 17  2  3
  6 18  1  0
 18 19  1  0
 19 20  2  0
 20 21  1  0
 21 22  2  0
 22 23  1  0
 22 24  1  0
 24 25  2  0
 25 26  1  0
 26 27  1  0
 27 28  1  0
 17  1  1  0
 25 19  1  0
M  END
>  <docking_score>  (2) 
-2.7610000000000001

$$$$

     RDKit          3D

 28 29  0  0  0  0  0  0  0  0999 V2000
   20.3604   -5.6754   -6.2118 C   0  0  0  0  0  0  0  0  0  0  0  0
   20.7378   -6.6254   -5.1653 C   0  0  0  0  0  0  0  0  0  0  0  0
   19.9807   -7.1402   -4.2212 C   0  0  0  0  0  0  0  0  0  0  0  0
   20.7559   -8.2812   -3.0929 Cl  0  0  0  0  0  0  0  0  0  0  0  0
   18.5755   -6.8493   -4.0283 C   0  0  0  0  0  0  0  0  0  0  0  0
   17.6215   -6.8176   -4.9002 C   0  0  0  0  0  0  0  0  0  0  0  0
   17.8533   -7.0950   -6.3292 C   0  0  0  0  0  0  0  0  0  0  0  0
   18.7046   -8.3280   -6.4184 C   0  0  0  0  0  0  0  0  0  0  0  0
   19.5494   -8.5091   -7.4135 C   0  0  0  0  0  0  0  0  0  0  0  0
   20.5665   -9.9999   -7.5003 S   0  0  0  0  0  0  0  0  0  0  0  0
   19.7034  -11.2885   -8.4481 C   0  0  0  0  0  0  0  0  0  0  0  0
   18.2946  -10.8417   -8.6999 C   0  0  0  0  0  0  0  0  0  0  0  0
   17.3314  -11.7126   -7.9785 C   0  0  0  0  0  0  0  0  0  0  0  0
   17.2208  -11.6192   -6.7470 O   0  0  0  0  0  0  0  0  0  0  0  0
   19.6553   -7.2374   -8.6708 S   0  0  0  0  0  0  0  0  0  0  0  0
   21.1253   -6.2497   -8.4275 C   0  0  0  0  0  0  0  0  0  0  0  0
   21.3572   -5.5896   -7.3026 C   0  0  0  0  0  0  0  0  0  0  0  0
   16.2498   -6.5093   -4.5405 N   0  0  0  0  0  0  0  0  0  0  0  0
   15.9315   -5.1310   -4.2997 C   0  0  0  0  0  0  0  0  0  0  0  0
   16.3178   -4.4984   -3.1334 C   0  0  0  0  0  0  0  0  0  0  0  0
   16.0123   -3.1933   -2.8993 C   0  0  0  0  0  0  0  0  0  0  0  0
   15.2950   -2.4719   -3.8515 C   0  0  0  0  0  0  0  0  0  0  0  0
   14.8796   -0.6387   -3.4968 Br  0  0  0  0  0  0  0  0  0  0  0  0
   14.9053   -3.0955   -5.0169 C   0  0  0  0  0  0  0  0  0  0  0  0
   15.2234   -4.4244   -5.2416 C   0  0  0  0  0  0  0  0  0  0  0  0
   14.8094   -5.0949   -6.4976 C   0  0  0  0  0  0  0  0  0  0  0  0
   13.3378   -5.4077   -6.4817 C   0  0  0  0  0  0  0  0  0  0  0  0
   12.7865   -5.5887   -8.1749 Cl  0  0  0  0  0  0  0  0  0  0  0  0
  1  2  1  0
  2  3  2  3
  3  4  1  0
  3  5  1  0
  5  6  2  3
  6  7  1  0
  7  8  1  0
  8  9  2  3
  9 10  1  0
 10 11  1  0
 11 12  1  0
 12 13  1  0
 13 14  2  0
  9 15  1  0
 15 16  1  0
 16 17  2  3
  6 18  1  0
 18 19  1  0
 19 20  2  0
 20 21  1  0
 21 22  2  0
 22 23  1  0
 22 24  1  0
 24 25  2  0
 25 26  1  0
 26 27  1  0
 27 28  1  0
 17  1  1  0
 25 19  1  0
M  END
>  <docking_score>  (3) 
-2.2959999999999998

$$$$
