
     RDKit          3D

 26 26  0  0  0  0  0  0  0  0999 V2000
   13.7494   -0.2012   -4.2172 C   0  0  0  0  0  0  0  0  0  0  0  0
   13.9784   -1.3980   -4.8965 O   0  0  0  0  0  0  0  0  0  0  0  0
   15.2292   -1.2754   -5.5117 C   0  0  0  0  0  3  0  0  0  0  0  0
   15.0325   -1.4510   -6.8843 O   0  0  0  0  0  0  0  0  0  0  0  0
   15.8095   -2.5289   -7.2759 C   0  0  2  0  0  0  0  0  0  0  0  0
   14.9911   -3.7463   -7.6075 C   0  0  0  0  0  0  0  0  0  0  0  0
   16.9190   -2.7573   -6.3171 C   0  0  0  0  0  3  0  0  0  0  0  0
   17.3254   -4.2003   -6.2041 C   0  0  1  0  0  0  0  0  0  0  0  0
   18.5499   -4.3573   -6.9432 N   0  0  0  0  0  0  0  0  0  0  0  0
   18.3520   -5.0700   -8.2012 C   0  0  0  0  0  2  0  0  0  0  0  0
   17.4502   -4.5322   -4.7447 C   0  0  1  0  0  0  0  0  0  0  0  0
   16.1097   -4.7049   -4.0824 C   0  0  1  0  0  0  0  0  0  0  0  0
   15.2790   -5.7435   -4.8156 C   0  0  0  0  0  0  0  0  0  0  0  0
   16.3070   -5.1670   -2.7931 O   0  0  0  0  0  0  0  0  0  0  0  0
   16.5289   -4.0611   -1.9864 C   0  0  0  0  0  3  0  0  0  0  0  0
   17.8407   -4.0723   -1.5005 O   0  0  0  0  0  0  0  0  0  0  0  0
   18.7344   -4.0607   -2.5755 C   0  0  1  0  0  0  0  0  0  0  0  0
   20.0294   -3.3859   -2.1841 C   0  0  0  0  0  2  0  0  0  0  0  0
   19.0416   -5.4449   -3.0851 C   0  0  2  0  0  0  0  0  0  0  0  0
   20.4250   -5.6257   -3.2383 O   0  0  0  0  0  0  0  0  0  0  0  0
   18.4066   -5.6496   -4.4500 C   0  0  1  0  0  0  0  0  0  0  0  0
   17.7673   -6.8949   -4.4157 O   0  0  0  0  0  0  0  0  0  0  0  0
   18.6888   -7.8353   -4.8969 C   0  0  2  0  0  0  0  0  0  0  0  0
   19.5638   -7.1281   -5.7653 O   0  0  0  0  0  0  0  0  0  0  0  0
   18.0475   -8.7995   -5.6732 O   0  0  0  0  0  0  0  0  0  0  0  0
   16.7679   -8.8697   -5.3155 O   0  0  0  0  0  0  0  0  0  0  0  0
  1  2  1  0
  2  3  1  0
  3  4  1  0
  4  5  1  0
  5  6  1  1
  5  7  1  0
  8  7  1  1
  8  9  1  0
  9 10  1  0
 11  8  1  6
 11 12  1  0
 12 13  1  6
 12 14  1  0
 14 15  1  0
 15 16  1  0
 16 17  1  0
 17 18  1  1
 17 19  1  0
 19 20  1  6
 19 21  1  0
 21 22  1  1
 22 23  1  0
 23 24  1  6
 23 25  1  0
 25 26  1  0
 21 11  1  0
M  RAD  5   3   2   7   2  10   3  15   2  18   3
M  END
>  <docking_score>  (1) 
-4.1429999999999998

$$$$

     RDKit          3D

 26 26  0  0  0  0  0  0  0  0999 V2000
   16.6680  -10.2560   -5.6599 C   0  0  0  0  0  0  0  0  0  0  0  0
   17.6395   -9.3362   -5.2642 O   0  0  0  0  0  0  0  0  0  0  0  0
   17.2262   -8.0878   -5.7423 C   0  0  0  0  0  3  0  0  0  0  0  0
   18.3503   -7.4629   -6.2895 O   0  0  0  0  0  0  0  0  0  0  0  0
   17.9733   -6.1786   -6.6463 C   0  0  2  0  0  0  0  0  0  0  0  0
   18.3641   -5.8277   -8.0556 C   0  0  0  0  0  0  0  0  0  0  0  0
   18.3915   -5.1984   -5.6136 C   0  0  0  0  0  3  0  0  0  0  0  0
   17.2684   -4.3254   -5.1268 C   0  0  1  0  0  0  0  0  0  0  0  0
   16.6471   -5.0067   -4.0222 N   0  0  0  0  0  0  0  0  0  0  0  0
   17.6188   -5.4647   -3.0344 C   0  0  0  0  0  2  0  0  0  0  0  0
   17.8464   -2.9867   -4.7669 C   0  0  1  0  0  0  0  0  0  0  0  0
   18.3577   -2.2437   -5.9718 C   0  0  1  0  0  0  0  0  0  0  0  0
   17.2685   -2.1105   -7.0218 C   0  0  0  0  0  0  0  0  0  0  0  0
   18.7193   -0.9651   -5.5853 O   0  0  0  0  0  0  0  0  0  0  0  0
   20.0207   -1.0288   -5.1105 C   0  0  0  0  0  3  0  0  0  0  0  0
   20.0489   -0.7550   -3.7389 O   0  0  0  0  0  0  0  0  0  0  0  0
   19.2527   -1.6843   -3.0631 C   0  0  1  0  0  0  0  0  0  0  0  0
   19.7662   -1.9037   -1.6582 C   0  0  0  0  0  2  0  0  0  0  0  0
   17.8079   -1.2631   -2.9929 C   0  0  2  0  0  0  0  0  0  0  0  0
   17.3120   -1.3935   -1.6863 O   0  0  0  0  0  0  0  0  0  0  0  0
   16.9621   -2.1541   -3.8867 C   0  0  1  0  0  0  0  0  0  0  0  0
   16.1278   -1.3081   -4.6275 O   0  0  0  0  0  0  0  0  0  0  0  0
   14.8256   -1.5025   -4.1464 C   0  0  2  0  0  0  0  0  0  0  0  0
   14.1948   -2.3970   -5.0532 O   0  0  0  0  0  0  0  0  0  0  0  0
   14.1021   -0.3117   -4.1904 O   0  0  0  0  0  0  0  0  0  0  0  0
   12.8992   -0.5489   -4.7071 O   0  0  0  0  0  0  0  0  0  0  0  0
  1  2  1  0
  2  3  1  0
  3  4  1  0
  4  5  1  0
  5  6  1  6
  5  7  1  0
  8  7  1  1
  8  9  1  0
  9 10  1  0
 11  8  1  6
 11 12  1  0
 12 13  1  6
 12 14  1  0
 14 15  1  0
 15 16  1  0
 16 17  1  0
 17 18  1  1
 17 19  1  0
 19 20  1  1
 19 21  1  0
 21 22  1  6
 22 23  1  0
 23 24  1  6
 23 25  1  0
 25 26  1  0
 21 11  1  0
M  RAD  5   3   2   7   2  10   3  15   2  18   3
M  END
>  <docking_score>  (2) 
-3.956

$$$$

     RDKit          3D

 26 26  0  0  0  0  0  0  0  0999 V2000
   21.3824    1.7530   -3.5956 C   0  0  0  0  0  0  0  0  0  0  0  0
   20.4555    0.7997   -3.1727 O   0  0  0  0  0  0  0  0  0  0  0  0
   21.1271   -0.0416   -2.2788 C   0  0  0  0  0  3  0  0  0  0  0  0
   20.2108   -0.4063   -1.2883 O   0  0  0  0  0  0  0  0  0  0  0  0
   19.6906   -1.6398   -1.6443 C   0  0  2  0  0  0  0  0  0  0  0  0
   20.7566   -2.6709   -1.8938 C   0  0  0  0  0  0  0  0  0  0  0  0
   18.6855   -1.4976   -2.7268 C   0  0  0  0  0  3  0  0  0  0  0  0
   17.7823   -2.6913   -2.8661 C   0  0  1  0  0  0  0  0  0  0  0  0
   16.7805   -2.5899   -1.8382 N   0  0  0  0  0  0  0  0  0  0  0  0
   16.0020   -1.3598   -1.9406 C   0  0  0  0  0  2  0  0  0  0  0  0
   17.2241   -2.6882   -4.2604 C   0  0  1  0  0  0  0  0  0  0  0  0
   18.2940   -2.8688   -5.3034 C   0  0  1  0  0  0  0  0  0  0  0  0
   19.0987   -4.1282   -5.0338 C   0  0  0  0  0  0  0  0  0  0  0  0
   17.6894   -3.0200   -6.5390 O   0  0  0  0  0  0  0  0  0  0  0  0
   17.4552   -1.7496   -7.0433 C   0  0  0  0  0  3  0  0  0  0  0  0
   16.0797   -1.5062   -7.1208 O   0  0  0  0  0  0  0  0  0  0  0  0
   15.5151   -1.6211   -5.8471 C   0  0  1  0  0  0  0  0  0  0  0  0
   14.2972   -0.7341   -5.7225 C   0  0  0  0  0  2  0  0  0  0  0  0
   15.1215   -3.0373   -5.5163 C   0  0  2  0  0  0  0  0  0  0  0  0
   13.8170   -3.0863   -5.0006 O   0  0  0  0  0  0  0  0  0  0  0  0
   16.0481   -3.5996   -4.4517 C   0  0  1  0  0  0  0  0  0  0  0  0
   16.4344   -4.8741   -4.8843 O   0  0  0  0  0  0  0  0  0  0  0  0
   16.1159   -5.7653   -3.8502 C   0  0  2  0  0  0  0  0  0  0  0  0
   17.3272   -6.4232   -3.5036 O   0  0  0  0  0  0  0  0  0  0  0  0
   15.2404   -6.7512   -4.3028 O   0  0  0  0  0  0  0  0  0  0  0  0
   15.0588   -6.6077   -5.6131 O   0  0  0  0  0  0  0  0  0  0  0  0
  1  2  1  0
  2  3  1  0
  3  4  1  0
  4  5  1  0
  5  6  1  6
  5  7  1  0
  8  7  1  6
  8  9  1  0
  9 10  1  0
 11  8  1  1
 11 12  1  0
 12 13  1  1
 12 14  1  0
 14 15  1  0
 15 16  1  0
 16 17  1  0
 17 18  1  6
 17 19  1  0
 19 20  1  1
 19 21  1  0
 21 22  1  6
 22 23  1  0
 23 24  1  6
 23 25  1  0
 25 26  1  0
 21 11  1  0
M  RAD  5   3   2   7   2  10   3  15   2  18   3
M  END
>  <docking_score>  (3) 
-3.8500000000000001

$$$$
