
     RDKit          3D

 63 66  0  0  0  0  0  0  0  0999 V2000
   11.5322   -2.2436   -4.9311 C   0  0  0  0  0  0  0  0  0  0  0  0
   12.8255   -3.0172   -5.0507 C   0  0  1  0  0  0  0  0  0  0  0  0
   12.7495   -3.9310   -6.2603 C   0  0  0  0  0  0  0  0  0  0  0  0
   12.7451   -3.1664   -7.5564 C   0  0  2  0  0  0  0  0  0  0  0  0
   12.9543   -4.1219   -8.5772 O   0  0  0  0  0  0  0  0  0  0  0  0
   13.8789   -2.1693   -7.6631 C   0  0  2  0  0  0  0  0  0  0  0  0
   15.1305   -2.8144   -7.6844 O   0  0  0  0  0  0  0  0  0  0  0  0
   13.8859   -1.2570   -6.4437 C   0  0  1  0  0  0  0  0  0  0  0  0
   12.6916   -0.5307   -6.4301 O   0  0  0  0  0  0  0  0  0  0  0  0
   14.0221   -2.1400   -5.2359 C   0  0  1  0  0  0  0  0  0  0  0  0
   14.3413   -1.3130   -4.0983 N   0  0  0  0  0  0  0  0  0  0  0  0
   15.7137   -1.5071   -3.7543 C   0  0  1  0  0  0  0  0  0  0  0  0
   16.4544   -2.4885   -4.6125 C   0  0  0  0  0  0  0  0  0  0  0  0
   17.5413   -1.8374   -5.4355 C   0  0  2  0  0  0  0  0  0  0  0  0
   16.9928   -1.1142   -6.5168 O   0  0  0  0  0  0  0  0  0  0  0  0
   18.3730   -2.9413   -6.0528 C   0  0  0  0  0  0  0  0  0  0  0  0
   17.6371   -3.8821   -6.7321 O   0  0  0  0  0  0  0  0  0  0  0  0
   18.4613   -0.9808   -4.6129 C   0  0  1  0  0  0  0  0  0  0  0  0
   18.5421    0.2783   -5.2524 O   0  0  0  0  0  0  0  0  0  0  0  0
   17.9342   -0.7175   -3.2195 C   0  0  2  0  0  0  0  0  0  0  0  0
   17.9412   -1.9696   -2.5647 O   0  0  0  0  0  0  0  0  0  0  0  0
   16.4767   -0.2715   -3.4152 C   0  0  1  0  0  0  0  0  0  0  0  0
   16.5207    0.6458   -4.4638 O   0  0  0  0  0  0  0  0  0  0  0  0
   15.3687    1.2145   -4.6517 O   0  0  0  0  0  0  0  0  0  0  0  0
   15.2563    1.5777   -5.9123 O   0  0  0  0  0  0  0  0  0  0  0  0
   15.9741    2.7196   -6.1916 C   0  0  0  0  0  3  0  0  0  0  0  0
   17.2491    2.4800   -6.6650 O   0  0  0  0  0  0  0  0  0  0  0  0
   18.1364    2.4691   -5.6699 O   0  0  0  0  0  0  0  0  0  0  0  0
   19.4389    2.5896   -6.1345 C   0  0  0  0  0  3  0  0  0  0  0  0
   20.2916    1.6613   -5.5349 O   0  0  0  0  0  0  0  0  0  0  0  0
   19.7943    0.4077   -5.8517 C   0  0  1  0  0  0  0  0  0  0  0  0
   20.6266   -0.6388   -5.4756 O   0  0  0  0  0  0  0  0  0  0  0  0
   20.2850   -1.6836   -6.2349 O   0  0  0  0  0  0  0  0  0  0  0  0
   20.8921   -2.7172   -5.6428 O   0  0  0  0  0  0  0  0  0  0  0  0
   21.3811   -3.4957   -6.7194 C   0  0  0  0  0  3  0  0  0  0  0  0
   20.4714   -4.6068   -6.7760 O   0  0  0  0  0  0  0  0  0  0  0  0
   20.6303   -5.7122   -5.9680 C   0  0  0  0  0  0  0  0  0  0  0  0
   20.7888   -6.8946   -6.4986 C   0  0  0  0  0  0  0  0  0  0  0  0
   20.7960   -7.0275   -7.8750 O   0  0  0  0  0  0  0  0  0  0  0  0
   19.7472   -6.5674   -8.7131 C   0  0  0  0  0  0  0  0  0  0  0  0
   18.5114   -6.7261   -8.1199 O   0  0  0  0  0  0  0  0  0  0  0  0
   17.9419   -7.9005   -8.6187 C   0  0  0  0  0  3  0  0  0  0  0  0
   18.6719   -9.1124   -8.0805 C   0  0  0  0  0  0  0  0  0  0  0  0
   18.4084   -9.2255   -6.6076 C   0  0  0  0  0  0  0  0  0  0  0  0
   17.1134   -9.8968   -6.2863 C   0  0  0  0  0  3  0  0  0  0  0  0
   17.0347  -11.0813   -7.0278 O   0  0  0  0  0  0  0  0  0  0  0  0
   18.0994  -11.9346   -6.7269 C   0  0  0  0  0  2  0  0  0  0  0  0
   20.6217   -5.5552   -4.5057 C   0  0  2  0  0  0  0  0  0  0  0  0
   20.5623   -6.7968   -3.8853 O   0  0  0  0  0  0  0  0  0  0  0  0
   19.4644   -4.7158   -4.0966 C   0  0  0  0  0  3  0  0  0  0  0  0
   19.7343   -3.8490   -3.0589 O   0  0  0  0  0  0  0  0  0  0  0  0
   19.0183   -4.2017   -1.9165 C   0  0  2  0  0  0  0  0  0  0  0  0
   17.7449   -4.5114   -2.3103 O   0  0  0  0  0  0  0  0  0  0  0  0
   17.1213   -5.4672   -1.5522 C   0  0  1  0  0  0  0  0  0  0  0  0
   17.9385   -6.6147   -1.5773 O   0  0  0  0  0  0  0  0  0  0  0  0
   16.9580   -5.1008   -0.2198 O   0  0  0  0  0  0  0  0  0  0  0  0
   15.7135   -4.5587    0.0503 C   0  0  1  0  0  0  0  0  0  0  0  0
   15.5580   -4.5882    1.4558 O   0  0  0  0  0  0  0  0  0  0  0  0
   15.7067   -3.2450   -0.4239 O   0  0  0  0  0  0  0  0  0  0  0  0
   16.7736   -2.9693   -1.1468 O   0  0  0  0  0  0  0  0  0  0  0  0
   17.8593   -2.5810   -0.3676 C   0  0  0  0  0  0  0  0  0  0  0  0
   19.1488   -3.1024   -0.9174 C   0  0  1  0  0  0  0  0  0  0  0  0
   20.0879   -3.3677    0.0775 O   0  0  0  0  0  0  0  0  0  0  0  0
  2  1  1  6
  2  3  1  0
  3  4  1  0
  4  5  1  6
  4  6  1  0
  6  7  1  1
  6  8  1  0
  8  9  1  1
  8 10  1  0
 10 11  1  1
 12 11  1  6
 12 13  1  0
 13 14  1  0
 14 15  1  6
 14 16  1  0
 16 17  1  0
 14 18  1  0
 18 19  1  6
 18 20  1  0
 20 21  1  1
 20 22  1  0
 22 23  1  6
 23 24  1  0
 24 25  1  0
 25 26  1  0
 26 27  1  0
 27 28  1  0
 28 29  1  0
 29 30  1  0
 30 31  1  0
 31 32  1  1
 32 33  1  0
 33 34  1  0
 34 35  1  0
 35 36  1  0
 36 37  1  0
 37 38  2  3
 38 39  1  0
 39 40  1  0
 40 41  1  0
 41 42  1  0
 42 43  1  0
 43 44  1  0
 44 45  1  0
 45 46  1  0
 46 47  1  0
 37 48  1  0
 48 49  1  1
 48 50  1  0
 50 51  1  0
 52 51  1  6
 52 53  1  0
 53 54  1  0
 54 55  1  1
 54 56  1  0
 56 57  1  0
 57 58  1  1
 57 59  1  0
 59 60  1  0
 60 61  1  0
 61 62  1  0
 62 63  1  1
 10  2  1  0
 22 12  1  0
 31 19  1  0
 62 52  1  0
M  RAD  7  26   2  29   2  35   2  42   2  45   2  47   3  50   2
M  END
>  <docking_score>  (1) 
19.911000000000001

$$$$
