
     RDKit          3D

 29 29  0  0  0  0  0  0  0  0999 V2000
    6.4151    9.3183   11.8390 C   0  0  0  0  0  0  0  0  0  0  0  0
    5.7320   10.6429   11.7458 C   0  0  0  0  0  0  0  0  0  0  0  0
    6.4435   11.6646   12.5994 C   0  0  0  0  0  0  0  0  0  0  0  0
    4.2604   10.5869   12.0926 C   0  0  0  0  0  0  0  0  0  0  0  0
    3.4963    9.8090   11.0422 C   0  0  0  0  0  0  0  0  0  0  0  0
    4.1884    9.8666    9.7010 C   0  0  0  0  0  0  0  0  0  0  0  0
    3.2604   10.3916    8.6279 C   0  0  1  0  0  0  0  0  0  0  0  0
    4.1194   10.9396    7.5080 C   0  0  0  0  0  0  0  0  0  0  0  0
    2.4589    9.2466    8.0796 C   0  0  0  0  0  3  0  0  0  0  0  0
    2.5965    9.0751    6.6024 C   0  0  0  0  0  0  0  0  0  0  0  0
    3.7497    8.1396    6.2492 C   0  0  0  0  0  0  0  0  0  0  0  0
    3.2070    7.2233    5.1449 C   0  0  2  0  0  0  0  0  0  0  0  0
    3.4594    5.7941    5.6408 C   0  0  0  0  0  0  0  0  0  0  0  0
    4.1570    7.4237    3.9572 C   0  0  0  0  0  3  0  0  0  0  0  0
    5.2385    8.3936    4.3911 C   0  0  0  0  0  0  0  0  0  0  0  0
    5.3609    9.4588    3.3852 C   0  0  2  0  0  0  0  0  0  0  0  0
    5.3967    9.1115    1.9812 C   0  0  0  0  0  0  0  0  0  0  0  0
    6.0195   10.6628    3.8363 C   0  0  0  0  0  0  0  0  0  0  0  0
    6.9166   11.2777    2.8226 C   0  0  0  0  0  0  0  0  0  0  0  0
    6.3969   12.5734    2.3358 C   0  0  1  0  0  0  0  0  0  0  0  0
    5.0490   12.6974    2.1816 O   0  0  0  0  0  0  0  0  0  0  0  0
    7.0319   13.6983    3.1060 C   0  0  2  0  0  0  0  0  0  0  0  0
    8.4694   13.4185    3.4649 C   0  0  0  0  0  0  0  0  0  0  0  0
    9.2157   14.7322    3.5413 C   0  0  2  0  0  0  0  0  0  0  0  0
   10.4908   14.4482    4.0335 O   0  0  0  0  0  0  0  0  0  0  0  0
    8.6206   15.6226    4.4271 O   0  0  0  0  0  0  0  0  0  0  0  0
    7.5158   14.7986    5.4811 S   0  0  0  0  0  0  0  0  0  0  0  0
    6.2993   13.9908    4.3987 C   0  0  1  0  0  0  0  0  0  0  0  0
    5.3195   14.9584    4.1330 F   0  0  0  0  0  0  0  0  0  0  0  0
  1  2  1  0
  2  3  1  0
  2  4  1  0
  4  5  1  0
  5  6  1  0
  6  7  1  0
  7  8  1  6
  7  9  1  0
  9 10  1  0
 10 11  1  0
 11 12  1  0
 12 13  1  1
 12 14  1  0
 14 15  1  0
 15 16  1  0
 16 17  1  6
 16 18  1  0
 18 19  1  0
 19 20  1  0
 20 21  1  1
 20 22  1  0
 22 23  1  1
 23 24  1  0
 24 25  1  1
 24 26  1  0
 26 27  1  0
 27 28  1  0
 28 29  1  6
 28 22  1  0
M  RAD  2   9   2  14   2
M  END
>  <docking_score>  (1) 
-3.879

$$$$

     RDKit          3D

 29 29  0  0  0  0  0  0  0  0999 V2000
    8.6182   14.9247    4.1981 C   0  0  0  0  0  0  0  0  0  0  0  0
    7.3190   15.2552    3.5405 C   0  0  0  0  0  0  0  0  0  0  0  0
    7.5523   16.0689    2.2907 C   0  0  0  0  0  0  0  0  0  0  0  0
    6.3399   15.9533    4.4589 C   0  0  0  0  0  0  0  0  0  0  0  0
    5.8039   14.9889    5.4956 C   0  0  0  0  0  0  0  0  0  0  0  0
    6.2060   15.4006    6.8921 C   0  0  0  0  0  0  0  0  0  0  0  0
    4.9972   15.7662    7.7247 C   0  0  1  0  0  0  0  0  0  0  0  0
    3.7703   15.2566    6.9986 C   0  0  0  0  0  0  0  0  0  0  0  0
    5.0850   15.0535    9.0432 C   0  0  0  0  0  3  0  0  0  0  0  0
    5.1536   13.5672    8.9148 C   0  0  0  0  0  0  0  0  0  0  0  0
    5.5987   12.9093   10.2182 C   0  0  0  0  0  0  0  0  0  0  0  0
    4.3185   12.3435   10.8465 C   0  0  2  0  0  0  0  0  0  0  0  0
    4.7485   11.0532   11.5552 C   0  0  0  0  0  0  0  0  0  0  0  0
    3.4552   11.8966    9.6597 C   0  0  0  0  0  3  0  0  0  0  0  0
    3.9857   10.5590    9.1824 C   0  0  0  0  0  0  0  0  0  0  0  0
    3.4837   10.2992    7.8251 C   0  0  2  0  0  0  0  0  0  0  0  0
    2.6587    9.1359    7.5817 C   0  0  0  0  0  0  0  0  0  0  0  0
    4.2920   10.8338    6.7538 C   0  0  0  0  0  0  0  0  0  0  0  0
    5.5063   10.0302    6.4533 C   0  0  0  0  0  0  0  0  0  0  0  0
    6.3235   10.6403    5.3828 C   0  0  1  0  0  0  0  0  0  0  0  0
    7.6424   10.3045    5.3236 O   0  0  0  0  0  0  0  0  0  0  0  0
    5.6032   10.5300    4.0672 C   0  0  2  0  0  0  0  0  0  0  0  0
    5.0008    9.1654    3.8465 C   0  0  0  0  0  0  0  0  0  0  0  0
    3.7693    9.3122    2.9803 C   0  0  2  0  0  0  0  0  0  0  0  0
    3.3381    8.0228    2.6637 O   0  0  0  0  0  0  0  0  0  0  0  0
    4.0450    9.9607    1.7824 O   0  0  0  0  0  0  0  0  0  0  0  0
    5.7513    9.9762    1.4677 S   0  0  0  0  0  0  0  0  0  0  0  0
    6.5153   10.8093    2.8910 C   0  0  1  0  0  0  0  0  0  0  0  0
    6.4542   12.1821    2.6107 F   0  0  0  0  0  0  0  0  0  0  0  0
  1  2  1  0
  2  3  1  0
  2  4  1  0
  4  5  1  0
  5  6  1  0
  6  7  1  0
  7  8  1  6
  7  9  1  0
  9 10  1  0
 10 11  1  0
 11 12  1  0
 12 13  1  1
 12 14  1  0
 14 15  1  0
 15 16  1  0
 16 17  1  6
 16 18  1  0
 18 19  1  0
 19 20  1  0
 20 21  1  6
 20 22  1  0
 22 23  1  6
 23 24  1  0
 24 25  1  6
 24 26  1  0
 26 27  1  0
 27 28  1  0
 28 29  1  6
 28 22  1  0
M  RAD  2   9   2  14   2
M  END
>  <docking_score>  (2) 
-3.387

$$$$

     RDKit          3D

 29 29  0  0  0  0  0  0  0  0999 V2000
   10.6773   16.0728    9.0408 C   0  0  0  0  0  0  0  0  0  0  0  0
   10.0194   15.3668   10.1803 C   0  0  0  0  0  0  0  0  0  0  0  0
   10.7442   14.0800   10.4928 C   0  0  0  0  0  0  0  0  0  0  0  0
    8.5448   15.1106    9.9591 C   0  0  0  0  0  0  0  0  0  0  0  0
    7.8708   14.7299   11.2602 C   0  0  0  0  0  0  0  0  0  0  0  0
    7.7620   13.2306   11.4072 C   0  0  0  0  0  0  0  0  0  0  0  0
    7.3260   12.8474   12.8040 C   0  0  1  0  0  0  0  0  0  0  0  0
    6.1096   13.6805   13.1485 C   0  0  0  0  0  0  0  0  0  0  0  0
    6.9140   11.4037   12.8028 C   0  0  0  0  0  3  0  0  0  0  0  0
    5.5831   11.1624   13.4361 C   0  0  0  0  0  0  0  0  0  0  0  0
    4.9606    9.8537   12.9571 C   0  0  0  0  0  0  0  0  0  0  0  0
    4.3914   10.1591   11.5655 C   0  0  2  0  0  0  0  0  0  0  0  0
    2.9814   10.7091   11.8140 C   0  0  0  0  0  0  0  0  0  0  0  0
    4.1913    8.7884   10.9064 C   0  0  0  0  0  3  0  0  0  0  0  0
    3.0249    8.9056    9.9450 C   0  0  0  0  0  0  0  0  0  0  0  0
    3.1598   10.1507    9.1749 C   0  0  2  0  0  0  0  0  0  0  0  0
    2.2576   11.2510    9.4367 C   0  0  0  0  0  0  0  0  0  0  0  0
    3.7398   10.0050    7.8600 C   0  0  0  0  0  0  0  0  0  0  0  0
    4.0452   11.2952    7.1871 C   0  0  0  0  0  0  0  0  0  0  0  0
    5.1836   11.1762    6.2512 C   0  0  1  0  0  0  0  0  0  0  0  0
    5.3659    9.9804    5.6246 O   0  0  0  0  0  0  0  0  0  0  0  0
    5.2091   12.3626    5.3273 C   0  0  2  0  0  0  0  0  0  0  0  0
    6.5920   12.9402    5.1607 C   0  0  0  0  0  0  0  0  0  0  0  0
    6.6966   13.5615    3.7853 C   0  0  2  0  0  0  0  0  0  0  0  0
    7.9236   14.2250    3.7305 O   0  0  0  0  0  0  0  0  0  0  0  0
    5.7049   14.5091    3.5612 O   0  0  0  0  0  0  0  0  0  0  0  0
    4.9716   14.9999    5.0552 S   0  0  0  0  0  0  0  0  0  0  0  0
    4.3140   13.4838    5.8120 C   0  0  1  0  0  0  0  0  0  0  0  0
    3.0417   13.2961    5.2527 F   0  0  0  0  0  0  0  0  0  0  0  0
  1  2  1  0
  2  3  1  0
  2  4  1  0
  4  5  1  0
  5  6  1  0
  6  7  1  0
  7  8  1  6
  7  9  1  0
  9 10  1  0
 10 11  1  0
 11 12  1  0
 12 13  1  1
 12 14  1  0
 14 15  1  0
 15 16  1  0
 16 17  1  6
 16 18  1  0
 18 19  1  0
 19 20  1  0
 20 21  1  6
 20 22  1  0
 22 23  1  1
 23 24  1  0
 24 25  1  1
 24 26  1  0
 26 27  1  0
 27 28  1  0
 28 29  1  6
 28 22  1  0
M  RAD  2   9   2  14   2
M  END
>  <docking_score>  (3) 
-1.1539999999999999

$$$$
