
     RDKit          3D

 34 34  0  0  0  0  0  0  0  0999 V2000
   20.1037   -7.5213   -6.6327 C   0  0  0  0  0  0  0  0  0  0  0  0
   20.6950   -7.1801   -5.4995 C   0  0  0  0  0  0  0  0  0  0  0  0
   20.7035   -8.0803   -4.3176 C   0  0  0  0  0  0  0  0  0  0  0  0
   21.3722   -5.8593   -5.3993 C   0  0  0  0  0  0  0  0  0  0  0  0
   20.4042   -4.7505   -5.7337 C   0  0  0  0  0  0  0  0  0  0  0  0
   19.7863   -4.1978   -4.4824 C   0  0  0  0  0  0  0  0  0  0  0  0
   19.7037   -5.2959   -3.4526 C   0  0  1  0  0  0  0  0  0  0  0  0
   20.0852   -4.7821   -2.0674 C   0  0  0  0  0  0  0  0  0  0  0  0
   18.3181   -5.8664   -3.4078 C   0  0  0  0  0  3  0  0  0  0  0  0
   17.3283   -4.7160   -3.2741 C   0  0  0  0  0  0  0  0  0  0  0  0
   16.0761   -5.1708   -2.5348 C   0  0  0  0  0  0  0  0  0  0  0  0
   16.0675   -4.5922   -1.1312 C   0  0  0  0  0  3  0  0  0  0  0  0
   16.2056   -3.0948   -1.1564 C   0  0  0  0  0  3  0  0  0  0  0  0
   16.0834   -2.5854   -2.5715 C   0  0  0  0  0  3  0  0  0  0  0  0
   17.2274   -1.6758   -2.9626 C   0  0  0  0  0  0  0  0  0  0  0  0
   17.1762   -1.4447   -4.4544 C   0  0  0  0  0  3  0  0  0  0  0  0
   18.5808   -1.6317   -5.0327 C   0  0  0  0  0  0  0  0  0  0  0  0
   18.5887   -0.9228   -6.3739 C   0  0  1  0  0  0  0  0  0  0  0  0
   19.2127    0.4524   -6.2242 C   0  0  0  0  0  2  0  0  0  0  0  0
   19.2551   -1.7632   -7.3789 C   0  0  2  0  0  0  0  0  0  0  0  0
   20.3388   -1.1910   -8.1857 C   0  0  0  0  0  0  0  0  0  0  0  0
   18.7854   -3.1198   -7.6315 C   0  0  0  0  0  0  0  0  0  0  0  0
   17.7952   -3.3444   -8.7056 C   0  0  0  0  0  0  0  0  0  0  0  0
   16.5151   -3.9886   -8.3495 C   0  0  0  0  0  3  0  0  0  0  0  0
   15.5545   -3.2041   -7.5402 C   0  0  1  0  0  0  0  0  0  0  0  0
   14.8494   -2.1039   -8.2419 C   0  0  0  0  0  0  0  0  0  0  0  0
   14.6598   -4.1208   -6.7532 C   0  0  2  0  0  0  0  0  0  0  0  0
   13.9967   -3.3725   -5.6070 C   0  0  0  0  0  0  0  0  0  0  0  0
   14.8088   -2.3735   -5.1020 O   0  0  0  0  0  0  0  0  0  0  0  0
   15.4964   -5.2355   -6.1634 C   0  0  0  0  0  0  0  0  0  0  0  0
   14.6224   -6.7160   -6.2346 S   0  0  2  0  0  0  0  0  0  0  0  0
   13.8840   -7.3779   -4.8084 C   0  0  0  0  0  0  0  0  0  0  0  0
   15.1032   -8.1904   -5.4278 C   0  0  2  0  0  0  0  0  0  0  0  0
   16.6366   -8.1926   -4.4142 P   0  0  0  0  0  0  0  0  0  0  0  0
  1  2  2  0
  2  3  1  0
  2  4  1  0
  4  5  1  0
  5  6  1  0
  6  7  1  0
  7  8  1  1
  7  9  1  0
  9 10  1  0
 10 11  1  0
 11 12  1  0
 12 13  1  0
 13 14  1  0
 14 15  1  0
 15 16  1  0
 16 17  1  0
 17 18  1  0
 18 19  1  1
 18 20  1  0
 20 21  1  6
 20 22  1  0
 22 23  1  0
 23 24  1  0
 24 25  1  0
 25 26  1  6
 25 27  1  0
 27 28  1  1
 28 29  1  0
 27 30  1  0
 31 30  1  1
 31 32  1  0
 32 33  1  0
 33 34  1  1
 33 31  1  0
M  RAD  7   9   2  12   2  13   2  14   2  16   2  19   3  24   2
M  END
>  <docking_score>  (1) 
0.58299999999999996

$$$$

     RDKit          3D

 34 34  0  0  0  0  0  0  0  0999 V2000
   19.6947    8.2742   -0.5869 C   0  0  0  0  0  0  0  0  0  0  0  0
   19.2560    7.8451   -1.7590 C   0  0  0  0  0  0  0  0  0  0  0  0
   17.9229    8.2340   -2.2873 C   0  0  0  0  0  0  0  0  0  0  0  0
   20.1167    6.9477   -2.5757 C   0  0  0  0  0  0  0  0  0  0  0  0
   19.3040    6.3010   -3.6709 C   0  0  0  0  0  0  0  0  0  0  0  0
   20.1512    5.3441   -4.4581 C   0  0  0  0  0  0  0  0  0  0  0  0
   20.6620    4.2691   -3.5325 C   0  0  1  0  0  0  0  0  0  0  0  0
   19.5210    3.6331   -2.7440 C   0  0  0  0  0  0  0  0  0  0  0  0
   21.3811    3.2087   -4.3106 C   0  0  0  0  0  3  0  0  0  0  0  0
   20.5580    2.8795   -5.5497 C   0  0  0  0  0  0  0  0  0  0  0  0
   20.3009    1.3804   -5.6384 C   0  0  0  0  0  0  0  0  0  0  0  0
   19.9194    1.0061   -7.0595 C   0  0  0  0  0  3  0  0  0  0  0  0
   19.4403   -0.4171   -7.1400 C   0  0  0  0  0  3  0  0  0  0  0  0
   18.8214   -0.8322   -5.8278 C   0  0  0  0  0  3  0  0  0  0  0  0
   17.3560   -1.1839   -5.9618 C   0  0  0  0  0  0  0  0  0  0  0  0
   17.1334   -2.5642   -5.3905 C   0  0  0  0  0  3  0  0  0  0  0  0
   15.8550   -2.5514   -4.5492 C   0  0  0  0  0  0  0  0  0  0  0  0
   15.6435   -3.9756   -4.0712 C   0  0  1  0  0  0  0  0  0  0  0  0
   16.1188   -4.9497   -5.1333 C   0  0  0  0  0  2  0  0  0  0  0  0
   16.2939   -4.1662   -2.7669 C   0  0  2  0  0  0  0  0  0  0  0  0
   16.4919   -3.0068   -1.8896 C   0  0  0  0  0  0  0  0  0  0  0  0
   16.8145   -5.4742   -2.3888 C   0  0  0  0  0  0  0  0  0  0  0  0
   18.2012   -5.8256   -2.7608 C   0  0  0  0  0  0  0  0  0  0  0  0
   18.4742   -6.1920   -4.1650 C   0  0  0  0  0  3  0  0  0  0  0  0
   18.3903   -7.6252   -4.5283 C   0  0  1  0  0  0  0  0  0  0  0  0
   17.2177   -8.0288   -5.3422 C   0  0  0  0  0  0  0  0  0  0  0  0
   19.7133   -8.1127   -5.0501 C   0  0  2  0  0  0  0  0  0  0  0  0
   20.6491   -8.4610   -3.9028 C   0  0  0  0  0  0  0  0  0  0  0  0
   21.3110   -7.3479   -3.4178 O   0  0  0  0  0  0  0  0  0  0  0  0
   20.3572   -7.0094   -5.8616 C   0  0  0  0  0  0  0  0  0  0  0  0
   19.2842   -5.6687   -5.9709 S   0  0  2  0  0  0  0  0  0  0  0  0
   18.3469   -5.3995   -7.4084 C   0  0  0  0  0  0  0  0  0  0  0  0
   19.4790   -4.3315   -7.0798 C   0  0  2  0  0  0  0  0  0  0  0  0
   20.9108   -4.3305   -8.2324 P   0  0  0  0  0  0  0  0  0  0  0  0
  1  2  2  0
  2  3  1  0
  2  4  1  0
  4  5  1  0
  5  6  1  0
  6  7  1  0
  7  8  1  6
  7  9  1  0
  9 10  1  0
 10 11  1  0
 11 12  1  0
 12 13  1  0
 13 14  1  0
 14 15  1  0
 15 16  1  0
 16 17  1  0
 17 18  1  0
 18 19  1  6
 18 20  1  0
 20 21  1  6
 20 22  1  0
 22 23  1  0
 23 24  1  0
 24 25  1  0
 25 26  1  6
 25 27  1  0
 27 28  1  1
 28 29  1  0
 27 30  1  0
 31 30  1  6
 31 32  1  0
 32 33  1  0
 33 34  1  6
 33 31  1  0
M  RAD  7   9   2  12   2  13   2  14   2  16   2  19   3  24   2
M  END
>  <docking_score>  (2) 
3.0699999999999998

$$$$

     RDKit          3D

 34 34  0  0  0  0  0  0  0  0999 V2000
    2.4401    6.9264   21.0497 C   0  0  0  0  0  0  0  0  0  0  0  0
    2.6741    8.0415   20.3773 C   0  0  0  0  0  0  0  0  0  0  0  0
    3.2818    9.2336   21.0231 C   0  0  0  0  0  0  0  0  0  0  0  0
    2.3211    8.1102   18.9337 C   0  0  0  0  0  0  0  0  0  0  0  0
    2.7939    9.4163   18.3431 C   0  0  0  0  0  0  0  0  0  0  0  0
    2.2632    9.5849   16.9492 C   0  0  0  0  0  0  0  0  0  0  0  0
    3.4179    9.5534   15.9801 C   0  0  1  0  0  0  0  0  0  0  0  0
    4.3616   10.7304   16.2090 C   0  0  0  0  0  0  0  0  0  0  0  0
    4.1801    8.2700   16.1180 C   0  0  0  0  0  3  0  0  0  0  0  0
    4.6613    7.8453   14.7362 C   0  0  0  0  0  0  0  0  0  0  0  0
    4.2186    8.8529   13.6826 C   0  0  0  0  0  0  0  0  0  0  0  0
    3.8993    8.1341   12.3840 C   0  0  0  0  0  3  0  0  0  0  0  0
    2.8210    8.8470   11.6154 C   0  0  0  0  0  3  0  0  0  0  0  0
    2.8471   10.3224   11.9305 C   0  0  0  0  0  3  0  0  0  0  0  0
    3.2418   11.1647   10.7373 C   0  0  0  0  0  0  0  0  0  0  0  0
    3.0236   10.3577    9.4793 C   0  0  0  0  0  3  0  0  0  0  0  0
    2.4301   11.2696    8.4030 C   0  0  0  0  0  0  0  0  0  0  0  0
    3.3209   11.1272    7.1833 C   0  0  1  0  0  0  0  0  0  0  0  0
    2.5342   11.4654    5.9305 C   0  0  0  0  0  2  0  0  0  0  0  0
    4.5331   11.9409    7.3527 C   0  0  2  0  0  0  0  0  0  0  0  0
    5.8364   11.3650    7.0026 C   0  0  0  0  0  0  0  0  0  0  0  0
    4.4496   13.2706    7.9440 C   0  0  0  0  0  0  0  0  0  0  0  0
    4.9980   13.4850    9.2998 C   0  0  0  0  0  0  0  0  0  0  0  0
    4.3500   12.7917   10.4310 C   0  0  0  0  0  3  0  0  0  0  0  0
    5.2113   11.9817   11.3228 C   0  0  1  0  0  0  0  0  0  0  0  0
    6.1733   11.0703   10.6565 C   0  0  0  0  0  0  0  0  0  0  0  0
    5.8077   12.8434   12.4009 C   0  0  2  0  0  0  0  0  0  0  0  0
    4.7734   13.8159   12.9465 C   0  0  0  0  0  0  0  0  0  0  0  0
    5.0920   14.2507   14.2200 O   0  0  0  0  0  0  0  0  0  0  0  0
    6.9443   13.6501   11.8113 C   0  0  0  0  0  0  0  0  0  0  0  0
    7.8900   14.3305   13.0776 S   0  0  2  0  0  0  0  0  0  0  0  0
    8.0850   16.0514   13.2107 C   0  0  0  0  0  0  0  0  0  0  0  0
    9.3819   15.2094   12.8377 C   0  0  2  0  0  0  0  0  0  0  0  0
   10.0073   15.4538   11.1267 P   0  0  0  0  0  0  0  0  0  0  0  0
  1  2  2  0
  2  3  1  0
  2  4  1  0
  4  5  1  0
  5  6  1  0
  6  7  1  0
  7  8  1  1
  7  9  1  0
  9 10  1  0
 10 11  1  0
 11 12  1  0
 12 13  1  0
 13 14  1  0
 14 15  1  0
 15 16  1  0
 16 17  1  0
 17 18  1  0
 18 19  1  6
 18 20  1  0
 20 21  1  1
 20 22  1  0
 22 23  1  0
 23 24  1  0
 24 25  1  0
 25 26  1  6
 25 27  1  0
 27 28  1  6
 28 29  1  0
 27 30  1  0
 31 30  1  6
 31 32  1  0
 32 33  1  0
 33 34  1  6
 33 31  1  0
M  RAD  7   9   2  12   2  13   2  14   2  16   2  19   3  24   2
M  END
>  <docking_score>  (3) 
3.2719999999999998

$$$$
