
     RDKit          3D

 12 11  0  0  0  0  0  0  0  0999 V2000
   18.6780    9.9161    0.6454 C   0  0  0  0  0  0  0  0  0  0  0  0
   19.8601    9.8245    0.0530 C   0  0  0  0  0  0  0  0  0  0  0  0
   21.0726    9.6945    0.8692 C   0  0  0  0  0  0  0  0  0  0  0  0
   19.9224    9.8567   -1.4317 C   0  0  0  0  0  3  0  0  0  0  0  0
   19.4820    8.5364   -2.0190 C   0  0  0  0  0  0  0  0  0  0  0  0
   20.6514    7.6108   -2.2756 C   0  0  0  0  0  0  0  0  0  0  0  0
   20.1093    6.4070   -3.0195 C   0  0  0  0  0  3  0  0  0  0  0  0
   21.0008    5.2049   -2.9007 C   0  0  0  0  0  0  0  0  0  0  0  0
   19.9005    6.8448   -4.4549 C   0  0  0  0  0  0  0  0  0  0  0  0
   18.5387    6.3349   -4.8742 C   0  0  0  0  0  0  0  0  0  0  0  0
   18.4677    6.0778   -6.3609 C   0  0  0  0  0  0  0  0  0  0  0  0
   17.9019    4.6691   -6.5304 C   0  0  0  0  0  2  0  0  0  0  0  0
  1  2  2  0
  2  3  1  0
  2  4  1  0
  4  5  1  0
  5  6  1  0
  6  7  1  0
  7  8  1  0
  7  9  1  0
  9 10  1  0
 10 11  1  0
 11 12  1  0
M  RAD  3   4   2   7   2  12   3
M  END
>  <docking_score>  (1) 
-4.7030000000000003

$$$$

     RDKit          3D

 12 11  0  0  0  0  0  0  0  0999 V2000
   19.2416   -4.3320   -2.3932 C   0  0  0  0  0  0  0  0  0  0  0  0
   18.2952   -5.2185   -2.6677 C   0  0  0  0  0  0  0  0  0  0  0  0
   18.6523   -6.4809   -3.3251 C   0  0  0  0  0  0  0  0  0  0  0  0
   16.8901   -4.9047   -2.2987 C   0  0  0  0  0  3  0  0  0  0  0  0
   16.3479   -3.7789   -3.1475 C   0  0  0  0  0  0  0  0  0  0  0  0
   15.6526   -4.2893   -4.3910 C   0  0  0  0  0  0  0  0  0  0  0  0
   16.3633   -3.6754   -5.5802 C   0  0  0  0  0  3  0  0  0  0  0  0
   17.2938   -4.6393   -6.2578 C   0  0  0  0  0  0  0  0  0  0  0  0
   17.0699   -2.4368   -5.0685 C   0  0  0  0  0  0  0  0  0  0  0  0
   16.7130   -1.3083   -6.0116 C   0  0  0  0  0  0  0  0  0  0  0  0
   15.2604   -1.3569   -6.4228 C   0  0  0  0  0  0  0  0  0  0  0  0
   14.5178   -0.3872   -5.5056 C   0  0  0  0  0  2  0  0  0  0  0  0
  1  2  2  0
  2  3  1  0
  2  4  1  0
  4  5  1  0
  5  6  1  0
  6  7  1  0
  7  8  1  0
  7  9  1  0
  9 10  1  0
 10 11  1  0
 11 12  1  0
M  RAD  3   4   2   7   2  12   3
M  END
>  <docking_score>  (2) 
-3.7639999999999998

$$$$

     RDKit          3D

 12 11  0  0  0  0  0  0  0  0999 V2000
   20.1727   -0.4606   -3.5645 C   0  0  0  0  0  0  0  0  0  0  0  0
   19.9427   -0.6704   -2.2761 C   0  0  0  0  0  0  0  0  0  0  0  0
   20.9260   -0.2258   -1.2818 C   0  0  0  0  0  0  0  0  0  0  0  0
   18.6861   -1.3550   -1.8743 C   0  0  0  0  0  3  0  0  0  0  0  0
   17.9978   -1.9659   -3.0722 C   0  0  0  0  0  0  0  0  0  0  0  0
   16.4977   -2.0425   -2.8873 C   0  0  0  0  0  0  0  0  0  0  0  0
   16.0653   -3.4233   -3.3374 C   0  0  0  0  0  3  0  0  0  0  0  0
   17.2280   -4.3363   -3.5987 C   0  0  0  0  0  0  0  0  0  0  0  0
   15.1878   -3.2247   -4.5564 C   0  0  0  0  0  0  0  0  0  0  0  0
   14.9181   -1.7395   -4.6643 C   0  0  0  0  0  0  0  0  0  0  0  0
   14.9822   -1.2585   -6.0947 C   0  0  0  0  0  0  0  0  0  0  0  0
   16.3500   -1.6760   -6.6312 C   0  0  0  0  0  2  0  0  0  0  0  0
  1  2  2  0
  2  3  1  0
  2  4  1  0
  4  5  1  0
  5  6  1  0
  6  7  1  0
  7  8  1  0
  7  9  1  0
  9 10  1  0
 10 11  1  0
 11 12  1  0
M  RAD  3   4   2   7   2  12   3
M  END
>  <docking_score>  (3) 
-3.5510000000000002

$$$$
