
     RDKit          3D

 10 10  0  0  0  0  0  0  0  0999 V2000
    6.3755    2.2581   -5.3344 C   0  0  0  0  0  0  0  0  0  0  0  0
    6.4376    1.3996   -6.5607 C   0  0  0  0  0  3  0  0  0  0  0  0
    5.9405   -0.0060   -6.3109 C   0  0  1  0  0  0  0  0  0  0  0  0
    5.4658   -0.6362   -7.6190 C   0  0  1  0  0  0  0  0  0  0  0  0
    6.4957   -0.4829   -8.5389 O   0  0  0  0  0  0  0  0  0  0  0  0
    5.4745   -2.1172   -7.2126 C   0  0  2  0  0  0  0  0  0  0  0  0
    4.5848   -2.1995   -6.1176 O   0  0  0  0  0  0  0  0  0  0  0  0
    6.8954   -2.2124   -6.6448 C   0  0  0  0  0  3  0  0  0  0  0  0
    7.0864   -0.9027   -5.9197 C   0  0  2  0  0  0  0  0  0  0  0  0
    6.9790   -1.1622   -4.5584 O   0  0  0  0  0  0  0  0  0  0  0  0
  1  2  1  0
  3  2  1  6
  3  4  1  0
  4  5  1  6
  4  6  1  0
  6  7  1  1
  6  8  1  0
  8  9  1  0
  9 10  1  1
  9  3  1  0
M  RAD  2   2   2   8   2
M  END
>  <docking_score>  (1) 
-3.613

$$$$

     RDKit          3D

 10 10  0  0  0  0  0  0  0  0999 V2000
   20.1992   -3.2644   -0.7835 C   0  0  0  0  0  0  0  0  0  0  0  0
   19.3571   -3.9125   -1.8397 C   0  0  0  0  0  3  0  0  0  0  0  0
   18.0054   -3.2525   -1.9904 C   0  0  1  0  0  0  0  0  0  0  0  0
   18.0526   -2.2048   -3.1010 C   0  0  1  0  0  0  0  0  0  0  0  0
   18.5810   -2.8293   -4.2241 O   0  0  0  0  0  0  0  0  0  0  0  0
   16.5494   -2.0436   -3.3708 C   0  0  2  0  0  0  0  0  0  0  0  0
   16.0007   -1.6258   -2.1373 O   0  0  0  0  0  0  0  0  0  0  0  0
   16.1690   -3.5173   -3.5552 C   0  0  0  0  0  3  0  0  0  0  0  0
   16.9994   -4.2398   -2.5227 C   0  0  2  0  0  0  0  0  0  0  0  0
   16.1514   -4.5893   -1.4783 O   0  0  0  0  0  0  0  0  0  0  0  0
  1  2  1  0
  3  2  1  6
  3  4  1  0
  4  5  1  6
  4  6  1  0
  6  7  1  1
  6  8  1  0
  8  9  1  0
  9 10  1  1
  9  3  1  0
M  RAD  2   2   2   8   2
M  END
>  <docking_score>  (2) 
-3.504

$$$$

     RDKit          3D

 10 10  0  0  0  0  0  0  0  0999 V2000
   18.0383   -5.2808   -2.6968 C   0  0  0  0  0  0  0  0  0  0  0  0
   16.8770   -4.4964   -2.1671 C   0  0  0  0  0  3  0  0  0  0  0  0
   16.1473   -3.7361   -3.2510 C   0  0  1  0  0  0  0  0  0  0  0  0
   15.9829   -2.2722   -2.8470 C   0  0  1  0  0  0  0  0  0  0  0  0
   17.2419   -1.8084   -2.4861 O   0  0  0  0  0  0  0  0  0  0  0  0
   15.6793   -1.6556   -4.2203 C   0  0  2  0  0  0  0  0  0  0  0  0
   14.5134   -2.3177   -4.6669 O   0  0  0  0  0  0  0  0  0  0  0  0
   16.8555   -2.2304   -5.0181 C   0  0  0  0  0  3  0  0  0  0  0  0
   17.0058   -3.6343   -4.4850 C   0  0  2  0  0  0  0  0  0  0  0  0
   16.4840   -4.4991   -5.4398 O   0  0  0  0  0  0  0  0  0  0  0  0
  1  2  1  0
  3  2  1  1
  3  4  1  0
  4  5  1  6
  4  6  1  0
  6  7  1  6
  6  8  1  0
  8  9  1  0
  9 10  1  6
  9  3  1  0
M  RAD  2   2   2   8   2
M  END
>  <docking_score>  (3) 
-3.2919999999999998

$$$$
