
     RDKit          3D

 38 40  0  0  0  0  0  0  0  0999 V2000
   16.9461   -4.0550   -1.3355 O   0  0  0  0  0  0  0  0  0  0  0  0
   17.1963   -3.0791   -2.0586 C   0  0  0  0  0  0  0  0  0  0  0  0
   17.9312   -2.0046   -1.5222 O   0  0  0  0  0  0  0  0  0  0  0  0
   16.7628   -2.9786   -3.4648 C   0  0  0  0  0  0  0  0  0  0  0  0
   16.7796   -1.5858   -3.9963 C   0  0  0  0  0  0  0  0  0  0  0  0
   15.6220   -1.3428   -4.8757 C   0  0  0  0  0  0  0  0  0  0  0  0
   14.4514   -0.7922   -4.5776 C   0  0  0  0  0  0  0  0  0  0  0  0
   13.5780   -0.7352   -5.7292 C   0  0  0  0  0  0  0  0  0  0  0  0
   12.2809   -0.2315   -5.8168 O   0  0  0  0  0  0  0  0  0  0  0  0
   14.2392   -1.2649   -6.7413 C   0  0  0  0  0  0  0  0  0  0  0  0
   15.5666   -1.6943   -6.3125 C   0  0  2  0  0  0  0  0  0  0  0  0
   15.7336   -3.1716   -6.4107 C   0  0  0  0  0  0  0  0  0  0  0  0
   16.2148   -3.6671   -7.5606 C   0  0  0  0  0  0  0  0  0  0  0  0
   16.3719   -5.0944   -7.6439 C   0  0  0  0  0  0  0  0  0  0  0  0
   17.5589   -5.6744   -7.5481 C   0  0  0  0  0  0  0  0  0  0  0  0
   17.7850   -7.1124   -7.6241 C   0  0  0  0  0  0  0  0  0  0  0  0
   18.2947   -7.7371   -8.7139 C   0  0  0  0  0  0  0  0  0  0  0  0
   18.4194   -9.2185   -8.4909 C   0  0  0  0  0  0  0  0  0  0  0  0
   18.9555   -9.5908   -7.2982 C   0  0  0  0  0  0  0  0  0  0  0  0
   19.3374   -8.4754   -6.3936 C   0  0  1  0  0  0  0  0  0  0  0  0
   19.2175   -8.8021   -4.9509 C   0  0  0  0  0  0  0  0  0  0  0  0
   20.3172   -8.0327   -4.2098 C   0  0  0  0  0  0  0  0  0  0  0  0
   19.7661   -6.8706   -3.4884 C   0  0  0  0  0  0  0  0  0  0  0  0
   18.4458   -6.6557   -3.5867 C   0  0  0  0  0  0  0  0  0  0  0  0
   20.4792   -7.7000   -6.7889 C   0  0  0  0  0  0  0  0  0  0  0  0
   20.5750   -6.4854   -7.0432 C   0  0  0  0  0  0  0  0  0  0  0  0
   19.9376   -5.2780   -7.1388 C   0  0  0  0  0  0  0  0  0  0  0  0
   18.7597   -4.8104   -7.3346 C   0  0  0  0  0  0  0  0  0  0  0  0
   18.5301   -3.3549   -7.3659 C   0  0  0  0  0  0  0  0  0  0  0  0
   19.5647   -2.5473   -6.7058 C   0  0  0  0  0  0  0  0  0  0  0  0
   19.3165   -1.2721   -6.4356 C   0  0  0  0  0  0  0  0  0  0  0  0
   20.4089   -0.5070   -5.7638 C   0  0  1  0  0  0  0  0  0  0  0  0
   21.2795    0.2766   -6.7504 C   0  0  0  0  0  0  0  0  0  0  0  0
   19.9837    0.2573   -4.5936 C   0  0  0  0  0  0  0  0  0  0  0  0
   20.6535   -0.5269   -3.7936 C   0  0  0  0  0  0  0  0  0  0  0  0
   21.1692   -1.3945   -4.8391 C   0  0  1  0  0  0  0  0  0  0  0  0
   20.7319   -2.8038   -4.8353 C   0  0  0  0  0  0  0  0  0  0  0  0
   21.3777   -3.6752   -4.2759 O   0  0  0  0  0  0  0  0  0  0  0  0
  1  2  2  0
  2  3  1  0
  2  4  1  0
  4  5  1  0
  5  6  1  0
  6  7  2  0
  7  8  1  0
  8  9  1  0
  8 10  2  0
 10 11  1  0
 11 12  1  1
 12 13  2  3
 13 14  1  0
 14 15  2  3
 15 16  1  0
 16 17  2  3
 17 18  1  0
 18 19  2  3
 19 20  1  0
 20 21  1  1
 21 22  1  0
 22 23  1  0
 23 24  2  0
 20 25  1  0
 25 26  2  3
 26 27  1  0
 27 28  2  3
 28 29  1  0
 29 30  1  0
 30 31  2  3
 31 32  1  0
 32 33  1  6
 32 34  1  0
 34 35  2  0
 35 36  1  0
 36 37  1  1
 37 38  2  0
 11  6  1  0
 28 15  1  0
 36 32  1  0
M  END
>  <docking_score>  (1) 
-2.1949999999999998

$$$$

     RDKit          3D

 38 40  0  0  0  0  0  0  0  0999 V2000
    6.9145   10.0590    0.7364 O   0  0  0  0  0  0  0  0  0  0  0  0
    6.2588   10.7097    1.5637 C   0  0  0  0  0  0  0  0  0  0  0  0
    6.6884   12.0062    1.9054 O   0  0  0  0  0  0  0  0  0  0  0  0
    5.0403   10.1969    2.2178 C   0  0  0  0  0  0  0  0  0  0  0  0
    4.6377   10.9755    3.4237 C   0  0  0  0  0  0  0  0  0  0  0  0
    3.8114   12.1373    3.0498 C   0  0  0  0  0  0  0  0  0  0  0  0
    3.6055   12.6596    1.8468 C   0  0  0  0  0  0  0  0  0  0  0  0
    2.7239   13.8049    1.9043 C   0  0  0  0  0  0  0  0  0  0  0  0
    2.2736   14.6129    0.8611 O   0  0  0  0  0  0  0  0  0  0  0  0
    2.3942   13.9745    3.1709 C   0  0  0  0  0  0  0  0  0  0  0  0
    3.0356   12.9618    4.0034 C   0  0  2  0  0  0  0  0  0  0  0  0
    4.0086   13.5605    4.9600 C   0  0  0  0  0  0  0  0  0  0  0  0
    4.7629   12.7213    5.6852 C   0  0  0  0  0  0  0  0  0  0  0  0
    5.6987   13.3104    6.6051 C   0  0  0  0  0  0  0  0  0  0  0  0
    5.4093   13.4769    7.8869 C   0  0  0  0  0  0  0  0  0  0  0  0
    6.3117   14.0659    8.8685 C   0  0  0  0  0  0  0  0  0  0  0  0
    6.1813   15.3270    9.3485 C   0  0  0  0  0  0  0  0  0  0  0  0
    7.2541   15.6476   10.3515 C   0  0  0  0  0  0  0  0  0  0  0  0
    7.4933   14.6878   11.2842 C   0  0  0  0  0  0  0  0  0  0  0  0
    6.6572   13.4645   11.1709 C   0  0  1  0  0  0  0  0  0  0  0  0
    7.3356   12.2267   11.6293 C   0  0  0  0  0  0  0  0  0  0  0  0
    6.4325   11.5658   12.6773 C   0  0  0  0  0  0  0  0  0  0  0  0
    6.2876   10.1201   12.4257 C   0  0  0  0  0  0  0  0  0  0  0  0
    5.0990    9.6904   11.9767 C   0  0  0  0  0  0  0  0  0  0  0  0
    5.2711   13.6088   11.5162 C   0  0  0  0  0  0  0  0  0  0  0  0
    4.2498   13.4212   10.8300 C   0  0  0  0  0  0  0  0  0  0  0  0
    3.7319   13.0564    9.6168 C   0  0  0  0  0  0  0  0  0  0  0  0
    4.0735   13.0235    8.3812 C   0  0  0  0  0  0  0  0  0  0  0  0
    3.1336   12.5284    7.3598 C   0  0  0  0  0  0  0  0  0  0  0  0
    3.1089   11.0691    7.1919 C   0  0  0  0  0  0  0  0  0  0  0  0
    3.1903   10.2923    8.2646 C   0  0  0  0  0  0  0  0  0  0  0  0
    3.1595    8.8185    8.0258 C   0  0  1  0  0  0  0  0  0  0  0  0
    3.0320    8.0091    9.3195 C   0  0  0  0  0  0  0  0  0  0  0  0
    2.2580    8.3956    6.9568 C   0  0  0  0  0  0  0  0  0  0  0  0
    3.2619    8.0431    6.2009 C   0  0  0  0  0  0  0  0  0  0  0  0
    4.2965    8.4120    7.1524 C   0  0  1  0  0  0  0  0  0  0  0  0
    5.2108    9.5077    6.7773 C   0  0  0  0  0  0  0  0  0  0  0  0
    6.0464    9.3743    5.8979 O   0  0  0  0  0  0  0  0  0  0  0  0
  1  2  2  0
  2  3  1  0
  2  4  1  0
  4  5  1  0
  5  6  1  0
  6  7  2  0
  7  8  1  0
  8  9  1  0
  8 10  2  0
 10 11  1  0
 11 12  1  1
 12 13  2  3
 13 14  1  0
 14 15  2  3
 15 16  1  0
 16 17  2  3
 17 18  1  0
 18 19  2  3
 19 20  1  0
 20 21  1  1
 21 22  1  0
 22 23  1  0
 23 24  2  0
 20 25  1  0
 25 26  2  3
 26 27  1  0
 27 28  2  3
 28 29  1  0
 29 30  1  0
 30 31  2  3
 31 32  1  0
 32 33  1  1
 32 34  1  0
 34 35  2  0
 35 36  1  0
 36 37  1  6
 37 38  2  0
 11  6  1  0
 28 15  1  0
 36 32  1  0
M  END
>  <docking_score>  (2) 
-0.066000000000000003

$$$$
