
     RDKit          3D

 29 29  0  0  0  0  0  0  0  0999 V2000
    7.3610   15.4311    2.7553 C   0  0  0  0  0  0  0  0  0  0  0  0
    7.8422   14.0625    3.2160 C   0  0  0  0  0  0  0  0  0  0  0  0
    7.3135   13.7670    4.6147 C   0  0  0  0  0  0  0  0  0  0  0  0
    7.2849   13.0518    2.2367 C   0  0  0  0  0  0  0  0  0  0  0  0
    7.3019   11.6741    2.9038 C   0  0  0  0  0  0  0  0  0  0  0  0
    6.3901   10.7326    2.1264 C   0  0  0  0  0  0  0  0  0  0  0  0
    5.0899   10.5749    2.8458 C   0  0  1  0  0  0  0  0  0  0  0  0
    3.9952   11.3509    2.1457 C   0  0  0  0  0  0  0  0  0  0  0  0
    4.7610    9.1269    3.0235 C   0  0  0  0  0  3  0  0  0  0  0  0
    4.1866    8.8608    4.3952 C   0  0  0  0  0  0  0  0  0  0  0  0
    5.2684    8.7874    5.4511 C   0  0  0  0  0  0  0  0  0  0  0  0
    4.7741    9.4732    6.6931 C   0  0  2  0  0  0  0  0  0  0  0  0
    4.1107    8.5242    7.6078 C   0  0  0  0  0  0  0  0  0  0  0  0
    4.0182   10.6960    6.3152 C   0  0  0  0  0  3  0  0  0  0  0  0
    4.9134   11.8985    6.6357 C   0  0  0  0  0  0  0  0  0  0  0  0
    4.4299   12.4178    7.9836 C   0  0  0  0  0  0  0  0  0  0  0  0
    3.5549   11.4150    8.6785 C   0  0  2  0  0  0  0  0  0  0  0  0
    2.4716   12.2210    9.8292 S   0  0  0  0  0  2  0  0  0  0  0  0
    3.1687   12.3328   11.4562 C   0  0  0  0  0  0  0  0  0  0  0  0
    2.3557   12.8359   12.5573 C   0  0  2  0  0  0  0  0  0  0  0  0
    2.2589   14.2915   12.7878 C   0  0  0  0  0  0  0  0  0  0  0  0
    2.6865   12.1366   13.8498 C   0  0  0  0  0  0  0  0  0  0  0  0
    4.1682   12.2874   14.1095 C   0  0  0  0  0  0  0  0  0  0  0  0
    4.3580   12.7164   15.5007 C   0  0  0  0  0  0  0  0  0  0  0  0
    3.9870   11.8811   16.5298 O   0  0  0  0  0  0  0  0  0  0  0  0
    4.9992   14.1619   15.8328 S   0  0  0  0  0  0  0  0  0  0  0  0
    4.4118   10.3244    9.2430 C   0  0  0  0  0  0  0  0  0  0  0  0
    3.7388    9.0002    8.9548 C   0  0  1  0  0  0  0  0  0  0  0  0
    2.4126    9.1188    9.2022 F   0  0  0  0  0  0  0  0  0  0  0  0
  1  2  1  0
  2  3  1  0
  2  4  1  0
  4  5  1  0
  5  6  1  0
  6  7  1  0
  7  8  1  6
  7  9  1  0
  9 10  1  0
 10 11  1  0
 12 11  1  6
 12 13  1  0
 12 14  1  0
 14 15  1  0
 15 16  1  0
 16 17  1  0
 17 18  1  1
 18 19  1  0
 19 20  1  0
 20 21  1  1
 20 22  1  0
 22 23  1  0
 23 24  1  0
 24 25  1  0
 24 26  2  0
 17 27  1  0
 27 28  1  0
 28 29  1  6
 28 13  1  0
M  CHG  1  18   1
M  RAD  3   9   2  14   2  18   2
M  END
>  <docking_score>  (1) 
-3.0880000000000001

$$$$

     RDKit          3D

 29 29  0  0  0  0  0  0  0  0999 V2000
   13.5117   -1.0790   -5.3030 C   0  0  0  0  0  0  0  0  0  0  0  0
   14.7281   -1.0131   -4.3905 C   0  0  0  0  0  0  0  0  0  0  0  0
   15.1083   -2.4141   -3.9255 C   0  0  0  0  0  0  0  0  0  0  0  0
   15.8567   -0.4247   -5.2097 C   0  0  0  0  0  0  0  0  0  0  0  0
   17.0332   -1.4037   -5.1830 C   0  0  0  0  0  0  0  0  0  0  0  0
   18.0008   -0.9903   -4.0807 C   0  0  0  0  0  0  0  0  0  0  0  0
   19.4000   -0.9928   -4.6051 C   0  0  1  0  0  0  0  0  0  0  0  0
   19.5868    0.1031   -5.6321 C   0  0  0  0  0  0  0  0  0  0  0  0
   20.3820   -0.9160   -3.4798 C   0  0  0  0  0  3  0  0  0  0  0  0
   20.9230   -2.2828   -3.1317 C   0  0  0  0  0  0  0  0  0  0  0  0
   19.8304   -3.2110   -2.6466 C   0  0  0  0  0  0  0  0  0  0  0  0
   19.7125   -4.3583   -3.6095 C   0  0  2  0  0  0  0  0  0  0  0  0
   20.5566   -4.1528   -4.8022 C   0  0  0  0  0  0  0  0  0  0  0  0
   18.2764   -4.6673   -3.8368 C   0  0  0  0  0  3  0  0  0  0  0  0
   17.9646   -5.9582   -3.0709 C   0  0  0  0  0  0  0  0  0  0  0  0
   18.0266   -7.0718   -4.1084 C   0  0  0  0  0  0  0  0  0  0  0  0
   18.7036   -6.6142   -5.3678 C   0  0  2  0  0  0  0  0  0  0  0  0
   18.1797   -7.5936   -6.7512 S   0  0  0  0  0  2  0  0  0  0  0  0
   17.3464   -6.6336   -7.9879 C   0  0  0  0  0  0  0  0  0  0  0  0
   16.0595   -6.0204   -7.6805 C   0  0  2  0  0  0  0  0  0  0  0  0
   15.0377   -5.8976   -8.7398 C   0  0  0  0  0  0  0  0  0  0  0  0
   16.2334   -4.6958   -6.9848 C   0  0  0  0  0  0  0  0  0  0  0  0
   15.0735   -3.8021   -7.3609 C   0  0  0  0  0  0  0  0  0  0  0  0
   15.5988   -2.6237   -8.0614 C   0  0  0  0  0  0  0  0  0  0  0  0
   14.8369   -1.4801   -8.1408 O   0  0  0  0  0  0  0  0  0  0  0  0
   17.0648   -2.6590   -8.7399 S   0  0  0  0  0  0  0  0  0  0  0  0
   20.1815   -6.5514   -5.1351 C   0  0  0  0  0  0  0  0  0  0  0  0
   20.7016   -5.2722   -5.7536 C   0  0  1  0  0  0  0  0  0  0  0  0
   20.1237   -5.1047   -6.9668 F   0  0  0  0  0  0  0  0  0  0  0  0
  1  2  1  0
  2  3  1  0
  2  4  1  0
  4  5  1  0
  5  6  1  0
  6  7  1  0
  7  8  1  6
  7  9  1  0
  9 10  1  0
 10 11  1  0
 12 11  1  1
 12 13  1  0
 12 14  1  0
 14 15  1  0
 15 16  1  0
 16 17  1  0
 17 18  1  6
 18 19  1  0
 19 20  1  0
 20 21  1  6
 20 22  1  0
 22 23  1  0
 23 24  1  0
 24 25  1  0
 24 26  2  0
 17 27  1  0
 27 28  1  0
 28 29  1  6
 28 13  1  0
M  CHG  1  18   1
M  RAD  3   9   2  14   2  18   2
M  END
>  <docking_score>  (2) 
-2.3250000000000002

$$$$

     RDKit          3D

 29 29  0  0  0  0  0  0  0  0999 V2000
    5.3093   12.9143    5.6834 C   0  0  0  0  0  0  0  0  0  0  0  0
    4.4493   13.2338    4.4690 C   0  0  0  0  0  0  0  0  0  0  0  0
    3.2185   14.0257    4.8947 C   0  0  0  0  0  0  0  0  0  0  0  0
    5.2999   14.0744    3.5410 C   0  0  0  0  0  0  0  0  0  0  0  0
    5.3870   13.3620    2.1889 C   0  0  0  0  0  0  0  0  0  0  0  0
    4.9937   11.9008    2.3692 C   0  0  0  0  0  0  0  0  0  0  0  0
    6.1938   11.0267    2.2003 C   0  0  1  0  0  0  0  0  0  0  0  0
    7.4661   11.8297    2.3651 C   0  0  0  0  0  0  0  0  0  0  0  0
    6.1193    9.8501    3.1203 C   0  0  0  0  0  3  0  0  0  0  0  0
    4.7027    9.6092    3.5867 C   0  0  0  0  0  0  0  0  0  0  0  0
    4.5425    8.2381    4.2070 C   0  0  0  0  0  0  0  0  0  0  0  0
    3.8823    8.3920    5.5478 C   0  0  2  0  0  0  0  0  0  0  0  0
    4.1224    9.7313    6.1188 C   0  0  0  0  0  0  0  0  0  0  0  0
    4.2133    7.2195    6.3994 C   0  0  0  0  0  3  0  0  0  0  0  0
    2.9597    6.3396    6.4651 C   0  0  0  0  0  0  0  0  0  0  0  0
    2.2859    6.6895    7.7855 C   0  0  0  0  0  0  0  0  0  0  0  0
    2.8292    7.9658    8.3599 C   0  0  2  0  0  0  0  0  0  0  0  0
    2.5971    8.0092   10.1183 S   0  0  0  0  0  2  0  0  0  0  0  0
    3.1890    9.5144   10.8457 C   0  0  0  0  0  0  0  0  0  0  0  0
    2.2646   10.6193   11.0727 C   0  0  2  0  0  0  0  0  0  0  0  0
    2.2594   11.7691   10.1458 C   0  0  0  0  0  0  0  0  0  0  0  0
    2.3341   11.1116   12.4945 C   0  0  0  0  0  0  0  0  0  0  0  0
    3.7761   11.4263   12.8217 C   0  0  0  0  0  0  0  0  0  0  0  0
    4.1043   10.8214   14.1185 C   0  0  0  0  0  0  0  0  0  0  0  0
    5.1761   11.2941   14.8412 O   0  0  0  0  0  0  0  0  0  0  0  0
    3.2167    9.6047   14.7039 S   0  0  0  0  0  0  0  0  0  0  0  0
    2.2653    9.1253    7.5984 C   0  0  0  0  0  0  0  0  0  0  0  0
    3.3858   10.1091    7.3411 C   0  0  1  0  0  0  0  0  0  0  0  0
    4.1246   10.2378    8.4688 F   0  0  0  0  0  0  0  0  0  0  0  0
  1  2  1  0
  2  3  1  0
  2  4  1  0
  4  5  1  0
  5  6  1  0
  6  7  1  0
  7  8  1  1
  7  9  1  0
  9 10  1  0
 10 11  1  0
 12 11  1  6
 12 13  1  0
 12 14  1  0
 14 15  1  0
 15 16  1  0
 16 17  1  0
 17 18  1  1
 18 19  1  0
 19 20  1  0
 20 21  1  6
 20 22  1  0
 22 23  1  0
 23 24  1  0
 24 25  1  0
 24 26  2  0
 17 27  1  0
 27 28  1  0
 28 29  1  1
 28 13  1  0
M  CHG  1  18   1
M  RAD  3   9   2  14   2  18   2
M  END
>  <docking_score>  (3) 
-2.1680000000000001

$$$$
