
     RDKit          3D

 18 19  0  0  0  0  0  0  0  0999 V2000
   16.0574   -4.1873   -3.4441 C   0  0  0  0  0  0  0  0  0  0  0  0
   16.8335   -3.2801   -2.6738 O   0  0  0  0  0  0  0  0  0  0  0  0
   17.9427   -3.6858   -1.8699 C   0  0  0  0  0  0  0  0  0  0  0  0
   18.8568   -4.5994   -2.3853 C   0  0  0  0  0  0  0  0  0  0  0  0
   18.7112   -5.2237   -3.6696 C   0  0  0  0  0  0  0  0  0  0  0  0
   18.1583   -4.5476   -4.7257 C   0  0  0  0  0  0  0  0  0  0  0  0
   16.6225   -4.7185   -4.6953 C   0  0  2  0  0  0  0  0  0  0  0  0
   16.1585   -4.0214   -5.8197 O   0  0  0  0  0  0  0  0  0  0  0  0
   16.9418   -3.4184   -6.7688 C   0  0  0  0  0  0  0  0  0  0  0  0
   16.4994   -2.2941   -7.3204 C   0  0  0  0  0  0  0  0  0  0  0  0
   15.2061   -1.6983   -6.9352 C   0  0  0  0  0  0  0  0  0  0  0  0
   15.2513   -0.8642   -5.8921 C   0  0  0  0  0  0  0  0  0  0  0  0
   13.9569   -0.2613   -5.4984 C   0  0  0  0  0  0  0  0  0  0  0  0
   13.7670    0.2482   -4.2975 C   0  0  0  0  0  0  0  0  0  0  0  0
   16.3692   -6.1767   -4.9395 C   0  0  0  0  0  0  0  0  0  0  0  0
   17.1933   -7.1826   -5.3068 C   0  0  0  0  0  0  0  0  0  0  0  0
   18.3972   -7.5267   -4.4952 C   0  0  0  0  0  0  0  0  0  0  0  0
   19.1083   -6.6011   -3.7387 C   0  0  0  0  0  0  0  0  0  0  0  0
  1  2  1  0
  2  3  1  0
  3  4  2  0
  4  5  1  0
  5  6  2  0
  6  7  1  0
  7  8  1  6
  8  9  1  0
  9 10  2  3
 10 11  1  0
 11 12  2  3
 12 13  1  0
 13 14  2  0
  7 15  1  0
 15 16  2  0
 16 17  1  0
 17 18  2  0
  7  1  1  0
 18  5  1  0
M  END
>  <docking_score>  (1) 
-4.9089999999999998

$$$$

     RDKit          3D

 18 19  0  0  0  0  0  0  0  0999 V2000
   18.4460   -4.0162   -3.1521 C   0  0  0  0  0  0  0  0  0  0  0  0
   18.7650   -4.1395   -1.7730 O   0  0  0  0  0  0  0  0  0  0  0  0
   19.8294   -3.4197   -1.1484 C   0  0  0  0  0  0  0  0  0  0  0  0
   20.0006   -2.0704   -1.4419 C   0  0  0  0  0  0  0  0  0  0  0  0
   19.2038   -1.3640   -2.4043 C   0  0  0  0  0  0  0  0  0  0  0  0
   17.8781   -1.6631   -2.5807 C   0  0  0  0  0  0  0  0  0  0  0  0
   17.7440   -2.8066   -3.6118 C   0  0  2  0  0  0  0  0  0  0  0  0
   16.3641   -3.0167   -3.7419 O   0  0  0  0  0  0  0  0  0  0  0  0
   15.4202   -2.0435   -3.9421 C   0  0  0  0  0  0  0  0  0  0  0  0
   14.6006   -2.1732   -4.9791 C   0  0  0  0  0  0  0  0  0  0  0  0
   14.6893   -3.3236   -5.8981 C   0  0  0  0  0  0  0  0  0  0  0  0
   13.8613   -4.3362   -5.6249 C   0  0  0  0  0  0  0  0  0  0  0  0
   13.9437   -5.4957   -6.5429 C   0  0  0  0  0  0  0  0  0  0  0  0
   14.4399   -5.3823   -7.7589 C   0  0  0  0  0  0  0  0  0  0  0  0
   18.2333   -2.2425   -4.9128 C   0  0  0  0  0  0  0  0  0  0  0  0
   18.5623   -0.9843   -5.2795 C   0  0  0  0  0  0  0  0  0  0  0  0
   19.6173   -0.2212   -4.5508 C   0  0  0  0  0  0  0  0  0  0  0  0
   19.9049   -0.3982   -3.2014 C   0  0  0  0  0  0  0  0  0  0  0  0
  1  2  1  0
  2  3  1  0
  3  4  2  0
  4  5  1  0
  5  6  2  0
  6  7  1  0
  7  8  1  6
  8  9  1  0
  9 10  2  3
 10 11  1  0
 11 12  2  3
 12 13  1  0
 13 14  2  0
  7 15  1  0
 15 16  2  0
 16 17  1  0
 17 18  2  0
  7  1  1  0
 18  5  1  0
M  END
>  <docking_score>  (2) 
-4.8479999999999999

$$$$

     RDKit          3D

 18 19  0  0  0  0  0  0  0  0999 V2000
   15.6400   -2.4849   -3.5284 C   0  0  0  0  0  0  0  0  0  0  0  0
   16.7350   -2.7731   -2.6702 O   0  0  0  0  0  0  0  0  0  0  0  0
   16.9379   -4.0499   -2.0620 C   0  0  0  0  0  0  0  0  0  0  0  0
   16.7604   -5.2007   -2.8236 C   0  0  0  0  0  0  0  0  0  0  0  0
   16.3087   -5.1846   -4.1859 C   0  0  0  0  0  0  0  0  0  0  0  0
   16.6681   -4.1732   -5.0380 C   0  0  0  0  0  0  0  0  0  0  0  0
   15.6607   -3.0087   -4.9041 C   0  0  2  0  0  0  0  0  0  0  0  0
   16.0949   -2.0466   -5.8267 O   0  0  0  0  0  0  0  0  0  0  0  0
   16.7150   -2.3039   -7.0215 C   0  0  0  0  0  0  0  0  0  0  0  0
   17.9848   -1.9390   -7.1566 C   0  0  0  0  0  0  0  0  0  0  0  0
   18.7212   -1.2757   -6.0641 C   0  0  0  0  0  0  0  0  0  0  0  0
   19.4744   -2.0836   -5.3119 C   0  0  0  0  0  0  0  0  0  0  0  0
   20.2173   -1.4256   -4.2124 C   0  0  0  0  0  0  0  0  0  0  0  0
   19.8586   -0.2474   -3.7421 C   0  0  0  0  0  0  0  0  0  0  0  0
   14.3504   -3.5433   -5.4014 C   0  0  0  0  0  0  0  0  0  0  0  0
   14.0303   -4.6969   -6.0280 C   0  0  0  0  0  0  0  0  0  0  0  0
   14.3360   -6.0196   -5.4089 C   0  0  0  0  0  0  0  0  0  0  0  0
   15.4111   -6.2419   -4.5547 C   0  0  0  0  0  0  0  0  0  0  0  0
  1  2  1  0
  2  3  1  0
  3  4  2  0
  4  5  1  0
  5  6  2  0
  6  7  1  0
  7  8  1  6
  8  9  1  0
  9 10  2  3
 10 11  1  0
 11 12  2  3
 12 13  1  0
 13 14  2  0
  7 15  1  0
 15 16  2  0
 16 17  1  0
 17 18  2  0
  7  1  1  0
 18  5  1  0
M  END
>  <docking_score>  (3) 
-4.6589999999999998

$$$$
