
     RDKit          3D

 59 58  0  0  0  0  0  0  0  0999 V2000
   20.6868   -8.6536   -5.5211 C   0  0  0  0  0  0  0  0  0  0  0  0
   20.2190   -9.2390   -4.2320 C   0  0  0  0  0  0  0  0  0  0  0  0
   19.0799   -8.7170   -3.4890 C   0  0  1  0  0  0  0  0  0  0  0  0
   19.4914   -8.2382   -2.0842 C   0  0  0  0  0  0  0  0  0  0  0  0
   18.4745   -7.4162   -4.2063 C   0  0  2  0  0  0  0  0  0  0  0  0
   18.4144   -6.5615   -3.1333 N   0  0  0  0  0  0  0  0  0  0  0  0
   17.9861   -6.1224   -2.0095 C   0  0  0  0  0  0  0  0  0  0  0  0
   17.0072   -6.8118   -1.3773 O   0  0  0  0  0  0  0  0  0  0  0  0
   18.3843   -4.9203   -1.1698 C   0  0  1  0  0  0  0  0  0  0  0  0
   19.3684   -4.2031   -2.0219 N   0  0  0  0  0  0  0  0  0  0  0  0
   19.6199   -4.5576   -3.3943 C   0  0  0  0  0  0  0  0  0  0  0  0
   19.2306   -5.3030   -4.1124 O   0  0  0  0  0  0  0  0  0  0  0  0
   20.7430   -3.4597   -3.8537 C   0  0  1  0  0  0  0  0  0  0  0  0
   20.1289   -2.7783   -4.9328 N   0  0  0  0  0  0  0  0  0  0  0  0
   19.2504   -3.4959   -5.8080 C   0  0  0  0  0  0  0  0  0  0  0  0
   19.0000   -4.7092   -5.5853 O   0  0  0  0  0  0  0  0  0  0  0  0
   18.7179   -2.7079   -6.9770 C   0  0  0  0  0  0  0  0  0  0  0  0
   17.6670   -1.9638   -6.5406 N   0  0  0  0  0  0  0  0  0  0  0  0
   16.8277   -1.0035   -6.3508 C   0  0  0  0  0  0  0  0  0  0  0  0
   16.9720    0.1189   -6.8049 O   0  0  0  0  0  0  0  0  0  0  0  0
   15.6277   -1.3903   -5.4869 C   0  0  2  0  0  0  0  0  0  0  0  0
   14.3966   -0.8008   -6.1888 C   0  0  0  0  0  0  0  0  0  0  0  0
   15.8098   -0.9859   -4.2740 N   0  0  0  0  0  0  0  0  0  0  0  0
   16.0633   -0.5780   -3.0222 C   0  0  0  0  0  0  0  0  0  0  0  0
   17.2401   -0.6326   -2.5775 O   0  0  0  0  0  0  0  0  0  0  0  0
   14.9326    0.0038   -2.1368 C   0  0  2  0  0  0  0  0  0  0  0  0
   14.8986    1.4493   -2.7035 C   0  0  0  0  0  0  0  0  0  0  0  0
   14.8352    1.2472   -4.1250 C   0  0  0  0  0  0  0  0  0  0  0  0
   15.0875    1.9680   -5.0963 C   0  0  0  0  0  0  0  0  0  0  0  0
   15.5943    3.3624   -5.1708 C   0  0  0  0  0  0  0  0  0  0  0  0
   16.8280    3.8069   -5.7427 S   0  0  1  0  0  0  0  0  0  0  0  0
   17.3590    3.4452   -7.2085 O   0  0  0  0  0  0  0  0  0  0  0  0
   17.5807    5.3201   -5.3188 C   0  0  0  0  0  0  0  0  0  0  0  0
   18.5214    5.2616   -4.3119 C   0  0  0  0  0  0  0  0  0  0  0  0
   15.5025    0.0232   -0.7762 N   0  0  0  0  0  0  0  0  0  0  0  0
   15.5662    1.3376   -0.1735 C   0  0  0  0  0  0  0  0  0  0  0  0
   16.1482    1.4417    1.1208 N   0  0  0  0  0  0  0  0  0  0  0  0
   15.1575    2.3162   -0.7723 O   0  0  0  0  0  0  0  0  0  0  0  0
   21.2675   -2.8151   -2.7185 C   0  0  0  0  0  0  0  0  0  0  0  0
   20.4559   -1.8826   -1.9944 C   0  0  0  0  0  0  0  0  0  0  0  0
   19.8978   -2.2362   -0.8543 O   0  0  0  0  0  0  0  0  0  0  0  0
   20.2355   -0.5458   -2.5517 C   0  0  0  0  0  0  0  0  0  0  0  0
   17.1605   -3.8507   -1.4083 C   0  0  0  0  0  0  0  0  0  0  0  0
   16.8895   -3.3789   -0.0448 C   0  0  0  0  0  0  0  0  0  0  0  0
   16.9639   -4.3600    1.0179 C   0  0  0  0  0  0  0  0  0  0  0  0
   17.4240   -3.5568    2.2652 C   0  0  0  0  0  0  0  0  0  0  0  0
   16.9229   -7.8822   -4.3159 C   0  0  0  0  0  0  0  0  0  0  0  0
   16.7832   -8.7255   -5.8857 S   0  0  0  0  0  0  0  0  0  0  0  0
   17.3662   -7.9779   -6.9822 O   0  0  0  0  0  0  0  0  0  0  0  0
   15.2952   -8.9004   -6.2078 O   0  0  0  0  0  0  0  0  0  0  0  0
   17.3756  -10.3423   -5.6705 N   0  0  0  0  0  0  0  0  0  0  0  0
   18.0991  -10.6910   -6.8380 N   0  0  0  0  0  0  0  0  0  0  0  0
   18.0949   -9.7316   -7.8592 N   0  0  0  0  0  0  0  0  0  0  0  0
   17.5318   -8.4775   -7.4269 C   0  0  0  0  0  3  0  0  0  0  0  0
   17.7329   -7.3817   -8.3506 N   0  0  0  0  0  0  0  0  0  0  0  0
   18.0468   -6.1622   -7.7243 C   0  0  0  0  0  0  0  0  0  0  0  0
   17.5849   -5.0346   -8.5511 N   0  0  0  0  0  0  0  0  0  0  0  0
   16.6247   -4.0611   -8.0460 C   0  0  0  0  0  0  0  0  0  0  0  0
   16.2321   -4.2701   -6.8308 O   0  0  0  0  0  0  0  0  0  0  0  0
  1  2  1  0
  2  3  1  0
  3  4  1  1
  3  5  1  0
  5  6  1  0
  6  7  1  0
  7  8  2  0
  7  9  1  0
  9 10  1  0
 10 11  1  0
 11 12  2  0
 11 13  1  0
 13 14  1  0
 14 15  1  0
 15 16  2  0
 15 17  1  0
 17 18  1  0
 18 19  1  0
 19 20  2  0
 19 21  1  0
 21 22  1  6
 21 23  1  0
 23 24  1  0
 24 25  2  0
 24 26  1  0
 26 27  1  6
 27 28  1  0
 28 29  2  3
 29 30  1  0
 30 31  1  0
 31 32  1  6
 31 33  1  0
 33 34  2  0
 26 35  1  0
 35 36  1  0
 36 37  1  0
 36 38  2  0
 13 39  1  1
 39 40  1  0
 40 41  1  0
 40 42  1  0
  9 43  1  6
 43 44  1  0
 44 45  1  0
 45 46  1  0
  5 47  1  1
 47 48  1  0
 48 49  2  0
 48 50  2  0
 48 51  1  0
 51 52  1  0
 52 53  1  0
 53 54  1  0
 54 55  1  0
 55 56  1  0
 56 57  1  0
 57 58  1  0
 58 59  2  0
M  RAD  1  54   2
M  END
>  <docking_score>  (1) 
32.781999999999996

$$$$

     RDKit          3D

 59 58  0  0  0  0  0  0  0  0999 V2000
   13.9562   -0.6969   -7.3427 C   0  0  0  0  0  0  0  0  0  0  0  0
   14.8703    0.0313   -6.4168 C   0  0  0  0  0  0  0  0  0  0  0  0
   15.2593   -0.4880   -5.1124 C   0  0  1  0  0  0  0  0  0  0  0  0
   14.6206    0.3204   -3.9676 C   0  0  0  0  0  0  0  0  0  0  0  0
   14.7224   -1.9858   -4.9080 C   0  0  2  0  0  0  0  0  0  0  0  0
   15.7343   -2.6846   -5.5190 N   0  0  0  0  0  0  0  0  0  0  0  0
   16.9472   -2.9737   -5.8095 C   0  0  0  0  0  0  0  0  0  0  0  0
   17.9379   -2.2378   -5.2528 O   0  0  0  0  0  0  0  0  0  0  0  0
   17.5510   -4.0532   -6.6921 C   0  0  1  0  0  0  0  0  0  0  0  0
   18.1749   -4.9938   -5.7251 N   0  0  0  0  0  0  0  0  0  0  0  0
   17.6262   -6.2919   -5.4314 C   0  0  0  0  0  0  0  0  0  0  0  0
   16.7616   -6.8910   -5.7726 O   0  0  0  0  0  0  0  0  0  0  0  0
   18.6928   -6.9016   -4.3504 C   0  0  1  0  0  0  0  0  0  0  0  0
   18.0509   -6.7187   -3.1013 N   0  0  0  0  0  0  0  0  0  0  0  0
   16.6884   -7.1328   -2.9443 C   0  0  0  0  0  0  0  0  0  0  0  0
   16.0907   -7.6921   -3.9005 O   0  0  0  0  0  0  0  0  0  0  0  0
   16.0662   -6.8145   -1.6091 C   0  0  0  0  0  0  0  0  0  0  0  0
   15.6786   -5.5115   -1.6241 N   0  0  0  0  0  0  0  0  0  0  0  0
   15.0833   -4.3968   -1.3675 C   0  0  0  0  0  0  0  0  0  0  0  0
   14.1455   -4.2945   -0.5949 O   0  0  0  0  0  0  0  0  0  0  0  0
   15.6497   -3.2010   -2.1324 C   0  0  2  0  0  0  0  0  0  0  0  0
   17.1322   -3.5185   -2.3715 C   0  0  0  0  0  0  0  0  0  0  0  0
   15.4242   -2.1117   -1.4761 N   0  0  0  0  0  0  0  0  0  0  0  0
   15.1617   -0.9562   -0.8489 C   0  0  0  0  0  0  0  0  0  0  0  0
   14.6095   -0.0178   -1.4813 O   0  0  0  0  0  0  0  0  0  0  0  0
   15.4869   -0.7828    0.6562 C   0  0  2  0  0  0  0  0  0  0  0  0
   15.3294   -2.2593    1.1113 C   0  0  0  0  0  0  0  0  0  0  0  0
   16.6849   -2.6890    1.3194 C   0  0  0  0  0  0  0  0  0  0  0  0
   17.6826   -2.7309    0.5916 C   0  0  0  0  0  0  0  0  0  0  0  0
   17.8775   -2.3161   -0.8213 C   0  0  0  0  0  0  0  0  0  0  0  0
   19.1134   -2.0035   -1.4704 S   0  0  1  0  0  0  0  0  0  0  0  0
   19.3890   -0.7143   -2.3778 O   0  0  0  0  0  0  0  0  0  0  0  0
   20.6648   -2.4911   -0.8447 C   0  0  0  0  0  0  0  0  0  0  0  0
   20.6766   -3.6601   -0.1129 C   0  0  0  0  0  0  0  0  0  0  0  0
   14.3659    0.0165    1.1861 N   0  0  0  0  0  0  0  0  0  0  0  0
   14.7684    1.1759    1.9533 C   0  0  0  0  0  0  0  0  0  0  0  0
   13.7413    1.9694    2.5365 N   0  0  0  0  0  0  0  0  0  0  0  0
   15.9473    1.4387    2.1097 O   0  0  0  0  0  0  0  0  0  0  0  0
   19.1746   -8.1415   -4.8081 C   0  0  0  0  0  0  0  0  0  0  0  0
   20.4405   -8.6255   -4.3435 C   0  0  0  0  0  0  0  0  0  0  0  0
   21.2027   -7.8641   -3.5849 O   0  0  0  0  0  0  0  0  0  0  0  0
   20.8838   -9.9629   -4.7451 C   0  0  0  0  0  0  0  0  0  0  0  0
   16.2761   -5.0235   -7.0553 C   0  0  0  0  0  0  0  0  0  0  0  0
   15.1370   -4.1094   -6.9059 C   0  0  0  0  0  0  0  0  0  0  0  0
   14.0440   -4.2617   -7.8437 C   0  0  0  0  0  0  0  0  0  0  0  0
   14.4425   -5.4808   -8.7199 C   0  0  0  0  0  0  0  0  0  0  0  0
   13.5863   -2.0118   -6.0680 C   0  0  0  0  0  0  0  0  0  0  0  0
   12.0230   -2.1218   -5.2083 S   0  0  0  0  0  0  0  0  0  0  0  0
   12.1629   -2.5712   -3.8374 O   0  0  0  0  0  0  0  0  0  0  0  0
   11.1491   -3.1545   -5.9282 O   0  0  0  0  0  0  0  0  0  0  0  0
   11.1911   -0.6154   -5.4316 N   0  0  0  0  0  0  0  0  0  0  0  0
   10.8653   -0.1131   -4.1473 N   0  0  0  0  0  0  0  0  0  0  0  0
    9.9566   -0.8844   -3.4107 N   0  0  0  0  0  0  0  0  0  0  0  0
    9.0878   -0.0733   -2.5958 C   0  0  0  0  0  3  0  0  0  0  0  0
    9.3365    1.3493   -2.6892 N   0  0  0  0  0  0  0  0  0  0  0  0
    8.1665    2.1293   -2.7134 C   0  0  0  0  0  0  0  0  0  0  0  0
    8.4872    3.5115   -3.1073 N   0  0  0  0  0  0  0  0  0  0  0  0
    8.0084    4.6543   -2.3395 C   0  0  0  0  0  0  0  0  0  0  0  0
    7.2999    4.3485   -1.3007 O   0  0  0  0  0  0  0  0  0  0  0  0
  1  2  1  0
  2  3  1  0
  3  4  1  1
  3  5  1  0
  5  6  1  0
  6  7  1  0
  7  8  2  0
  7  9  1  0
  9 10  1  0
 10 11  1  0
 11 12  2  0
 11 13  1  0
 13 14  1  0
 14 15  1  0
 15 16  2  0
 15 17  1  0
 17 18  1  0
 18 19  1  0
 19 20  2  0
 19 21  1  0
 21 22  1  1
 21 23  1  0
 23 24  1  0
 24 25  2  0
 24 26  1  0
 26 27  1  1
 27 28  1  0
 28 29  2  3
 29 30  1  0
 30 31  1  0
 31 32  1  1
 31 33  1  0
 33 34  2  0
 26 35  1  0
 35 36  1  0
 36 37  1  0
 36 38  2  0
 13 39  1  6
 39 40  1  0
 40 41  1  0
 40 42  1  0
  9 43  1  1
 43 44  1  0
 44 45  1  0
 45 46  1  0
  5 47  1  6
 47 48  1  0
 48 49  2  0
 48 50  2  0
 48 51  1  0
 51 52  1  0
 52 53  1  0
 53 54  1  0
 54 55  1  0
 55 56  1  0
 56 57  1  0
 57 58  1  0
 58 59  2  0
M  RAD  1  54   2
M  END
>  <docking_score>  (2) 
34.494

$$$$
