
     RDKit          3D

 22 21  0  0  0  0  0  0  0  0999 V2000
   16.7189  -10.1775   -5.3520 C   0  0  0  0  0  0  0  0  0  0  0  0
   17.3474   -8.8406   -5.4760 C   0  0  0  0  0  0  0  0  0  0  0  0
   18.2584   -8.5000   -4.6675 O   0  0  0  0  0  0  0  0  0  0  0  0
   16.9612   -7.9456   -6.4614 O   0  0  0  0  0  0  0  0  0  0  0  0
   17.5424   -6.6572   -6.5252 C   0  0  0  0  0  3  0  0  0  0  0  0
   18.7227   -6.6733   -7.4087 C   0  0  0  0  0  0  0  0  0  0  0  0
   18.7220   -7.3370   -8.7346 C   0  0  0  0  0  0  0  0  0  0  0  0
   19.7553   -6.1215   -7.0512 O   0  0  0  0  0  0  0  0  0  0  0  0
   16.5293   -5.6492   -6.9901 C   0  0  0  0  0  0  0  0  0  0  0  0
   16.8494   -4.2858   -6.4474 C   0  0  0  0  0  0  0  0  0  0  0  0
   15.7168   -3.3532   -6.8172 C   0  0  0  0  0  3  0  0  0  0  0  0
   16.3353   -1.9994   -7.1272 C   0  0  0  0  0  0  0  0  0  0  0  0
   15.9738   -1.0920   -5.9519 C   0  0  0  0  0  0  0  0  0  0  0  0
   14.8055   -1.7120   -5.2570 C   0  0  2  0  0  0  0  0  0  0  0  0
   13.5895   -0.8242   -5.2121 C   0  0  0  0  0  0  0  0  0  0  0  0
   15.1161   -2.2750   -4.0310 O   0  0  0  0  0  0  0  0  0  0  0  0
   16.3972   -1.9159   -3.6772 C   0  0  0  0  0  0  0  0  0  0  0  0
   16.9955   -2.8476   -2.6898 C   0  0  0  0  0  0  0  0  0  0  0  0
   18.0886   -2.5749   -2.2331 O   0  0  0  0  0  0  0  0  0  0  0  0
   16.2948   -4.0764   -2.2637 C   0  0  0  0  0  0  0  0  0  0  0  0
   16.8154   -5.2766   -2.9559 C   0  0  0  0  0  0  0  0  0  0  0  0
   17.9683   -5.6250   -2.8462 O   0  0  0  0  0  0  0  0  0  0  0  0
  1  2  1  0
  2  3  2  0
  2  4  1  0
  4  5  1  0
  5  6  1  0
  6  7  1  0
  6  8  2  0
  5  9  1  0
  9 10  1  0
 10 11  1  0
 11 12  1  0
 12 13  1  0
 13 14  1  0
 14 15  1  1
 14 16  1  0
 16 17  1  0
 17 18  1  0
 18 19  2  0
 18 20  1  0
 20 21  1  0
 21 22  2  0
M  RAD  2   5   2  11   2
M  END
>  <docking_score>  (1) 
-3.3679999999999999

$$$$

     RDKit          3D

 22 21  0  0  0  0  0  0  0  0999 V2000
   16.4604   -4.3766   -1.5717 C   0  0  0  0  0  0  0  0  0  0  0  0
   17.8417   -4.0052   -1.9612 C   0  0  0  0  0  0  0  0  0  0  0  0
   18.2287   -2.8085   -1.8291 O   0  0  0  0  0  0  0  0  0  0  0  0
   18.7285   -4.9408   -2.4708 O   0  0  0  0  0  0  0  0  0  0  0  0
   19.2194   -4.8158   -3.7919 C   0  0  0  0  0  3  0  0  0  0  0  0
   19.8253   -6.0854   -4.2331 C   0  0  0  0  0  0  0  0  0  0  0  0
   19.1184   -7.3855   -4.1404 C   0  0  0  0  0  0  0  0  0  0  0  0
   20.9577   -6.0875   -4.6980 O   0  0  0  0  0  0  0  0  0  0  0  0
   18.1179   -4.3878   -4.7204 C   0  0  0  0  0  0  0  0  0  0  0  0
   18.6815   -3.9103   -6.0281 C   0  0  0  0  0  0  0  0  0  0  0  0
   18.6767   -2.3973   -6.0194 C   0  0  0  0  0  3  0  0  0  0  0  0
   17.5217   -1.9589   -5.1332 C   0  0  0  0  0  0  0  0  0  0  0  0
   16.3556   -1.6643   -6.0759 C   0  0  0  0  0  0  0  0  0  0  0  0
   15.0956   -1.9093   -5.3114 C   0  0  2  0  0  0  0  0  0  0  0  0
   15.2356   -1.6827   -3.8289 C   0  0  0  0  0  0  0  0  0  0  0  0
   14.4730   -3.1055   -5.6245 O   0  0  0  0  0  0  0  0  0  0  0  0
   14.9229   -3.5453   -6.8491 C   0  0  0  0  0  0  0  0  0  0  0  0
   14.9971   -5.0250   -6.9284 C   0  0  0  0  0  0  0  0  0  0  0  0
   14.7152   -5.6673   -5.9355 O   0  0  0  0  0  0  0  0  0  0  0  0
   15.4007   -5.7129   -8.1718 C   0  0  0  0  0  0  0  0  0  0  0  0
   16.7650   -6.2781   -8.0718 C   0  0  0  0  0  0  0  0  0  0  0  0
   17.1112   -6.9417   -7.1220 O   0  0  0  0  0  0  0  0  0  0  0  0
  1  2  1  0
  2  3  2  0
  2  4  1  0
  4  5  1  0
  5  6  1  0
  6  7  1  0
  6  8  2  0
  5  9  1  0
  9 10  1  0
 10 11  1  0
 11 12  1  0
 12 13  1  0
 13 14  1  0
 14 15  1  1
 14 16  1  0
 16 17  1  0
 17 18  1  0
 18 19  2  0
 18 20  1  0
 20 21  1  0
 21 22  2  0
M  RAD  2   5   2  11   2
M  END
>  <docking_score>  (2) 
-3.3559999999999999

$$$$

     RDKit          3D

 22 21  0  0  0  0  0  0  0  0999 V2000
   16.4709   -1.8112   -2.0513 C   0  0  0  0  0  0  0  0  0  0  0  0
   16.8888   -2.0299   -3.4567 C   0  0  0  0  0  0  0  0  0  0  0  0
   17.8816   -1.3980   -3.9199 O   0  0  0  0  0  0  0  0  0  0  0  0
   16.2161   -2.9150   -4.2846 O   0  0  0  0  0  0  0  0  0  0  0  0
   14.9358   -2.5887   -4.7907 C   0  0  0  0  0  3  0  0  0  0  0  0
   14.8886   -1.1677   -5.1810 C   0  0  0  0  0  0  0  0  0  0  0  0
   14.0707   -0.1648   -4.4575 C   0  0  0  0  0  0  0  0  0  0  0  0
   15.5447   -0.7800   -6.1390 O   0  0  0  0  0  0  0  0  0  0  0  0
   14.5881   -3.4820   -5.9482 C   0  0  0  0  0  0  0  0  0  0  0  0
   14.0830   -4.8098   -5.4609 C   0  0  0  0  0  0  0  0  0  0  0  0
   15.0814   -5.8719   -5.8663 C   0  0  0  0  0  3  0  0  0  0  0  0
   15.3551   -6.7214   -4.6355 C   0  0  0  0  0  0  0  0  0  0  0  0
   16.3430   -7.7997   -5.0790 C   0  0  0  0  0  0  0  0  0  0  0  0
   17.7148   -7.2205   -4.9568 C   0  0  2  0  0  0  0  0  0  0  0  0
   18.8081   -8.1629   -5.3872 C   0  0  0  0  0  0  0  0  0  0  0  0
   17.9626   -6.6182   -3.7352 O   0  0  0  0  0  0  0  0  0  0  0  0
   18.4483   -5.3472   -3.9451 C   0  0  0  0  0  0  0  0  0  0  0  0
   19.8504   -5.1925   -3.4855 C   0  0  0  0  0  0  0  0  0  0  0  0
   20.0494   -5.0241   -2.2981 O   0  0  0  0  0  0  0  0  0  0  0  0
   20.9835   -5.2394   -4.4322 C   0  0  0  0  0  0  0  0  0  0  0  0
   20.6068   -4.7288   -5.7693 C   0  0  0  0  0  0  0  0  0  0  0  0
   21.3823   -4.7411   -6.6972 O   0  0  0  0  0  0  0  0  0  0  0  0
  1  2  1  0
  2  3  2  0
  2  4  1  0
  4  5  1  0
  5  6  1  0
  6  7  1  0
  6  8  2  0
  5  9  1  0
  9 10  1  0
 10 11  1  0
 11 12  1  0
 12 13  1  0
 13 14  1  0
 14 15  1  1
 14 16  1  0
 16 17  1  0
 17 18  1  0
 18 19  2  0
 18 20  1  0
 20 21  1  0
 21 22  2  0
M  RAD  2   5   2  11   2
M  END
>  <docking_score>  (3) 
-3.1989999999999998

$$$$
