
     RDKit          3D

 27 27  0  0  0  0  0  0  0  0999 V2000
   19.2525   -5.7800   -6.3825 C   0  0  0  0  0  0  0  0  0  0  0  0
   18.4665   -5.7702   -7.5527 O   0  0  0  0  0  0  0  0  0  0  0  0
   17.5383   -4.7562   -7.8335 C   0  0  0  0  0  0  0  0  0  0  0  0
   17.5570   -3.7077   -7.0459 C   0  0  0  0  0  0  0  0  0  0  0  0
   16.7023   -2.5580   -7.1464 C   0  0  0  0  0  0  0  0  0  0  0  0
   15.5732   -2.3891   -6.4873 C   0  0  0  0  0  0  0  0  0  0  0  0
   15.0168   -3.3779   -5.5337 C   0  0  0  0  0  0  0  0  0  0  0  0
   15.9702   -3.6326   -4.3665 C   0  0  2  0  0  0  0  0  0  0  0  0
   17.0394   -2.5965   -4.4291 C   0  0  0  0  0  0  0  0  0  0  0  0
   17.3561   -2.0202   -3.2237 O   0  0  0  0  0  0  0  0  0  0  0  0
   18.6268   -1.4495   -3.2058 C   0  0  0  0  0  0  0  0  0  0  0  0
   19.0878   -1.0380   -4.5695 C   0  0  0  0  0  0  0  0  0  0  0  0
   16.4521   -5.0396   -4.4874 C   0  0  0  0  0  0  0  0  0  0  0  0
   17.9133   -5.2228   -4.2467 C   0  0  1  0  0  0  0  0  0  0  0  0
   18.0640   -5.8352   -2.8481 C   0  0  0  0  0  0  0  0  0  0  0  0
   18.4737   -6.2226   -5.2031 C   0  0  0  0  0  0  0  0  0  0  0  0
   18.2815   -7.5255   -5.0098 C   0  0  0  0  0  0  0  0  0  0  0  0
   18.8233   -8.5284   -5.9373 C   0  0  0  0  0  0  0  0  0  0  0  0
   17.8146   -8.9450   -6.8222 O   0  0  0  0  0  0  0  0  0  0  0  0
   18.4312   -9.4183   -7.9777 C   0  0  0  0  0  0  0  0  0  0  0  0
   19.8688   -9.0409   -7.9307 C   0  0  0  0  0  0  0  0  0  0  0  0
   20.6549   -9.4763   -8.7400 O   0  0  0  0  0  0  0  0  0  0  0  0
   14.8662   -1.2098   -6.7045 O   0  0  0  0  0  0  0  0  0  0  0  0
   13.8178   -0.7965   -5.8477 C   0  0  0  0  0  0  0  0  0  0  0  0
   14.0496    0.5939   -5.3066 C   0  0  0  0  0  3  0  0  0  0  0  0
   13.7795    0.5629   -3.9354 O   0  0  0  0  0  0  0  0  0  0  0  0
   14.1404   -0.6134   -3.4228 O   0  0  0  0  0  0  0  0  0  0  0  0
  1  2  1  0
  2  3  1  0
  3  4  2  3
  4  5  1  0
  5  6  2  3
  6  7  1  0
  7  8  1  0
  8  9  1  6
  9 10  1  0
 10 11  1  0
 11 12  1  0
  8 13  1  0
 13 14  1  0
 14 15  1  1
 14 16  1  0
 16 17  2  3
 17 18  1  0
 18 19  1  0
 19 20  1  0
 20 21  1  0
 21 22  2  0
  6 23  1  0
 23 24  1  0
 24 25  1  0
 25 26  1  0
 26 27  1  0
 16  1  1  0
M  RAD  1  25   2
M  END
>  <docking_score>  (1) 
-3.6190000000000002

$$$$

     RDKit          3D

 27 27  0  0  0  0  0  0  0  0999 V2000
   17.8030   -6.0403   -6.5803 C   0  0  0  0  0  0  0  0  0  0  0  0
   16.4059   -5.8535   -6.5599 O   0  0  0  0  0  0  0  0  0  0  0  0
   15.7851   -4.8645   -5.7821 C   0  0  0  0  0  0  0  0  0  0  0  0
   16.5733   -3.9891   -5.2056 C   0  0  0  0  0  0  0  0  0  0  0  0
   16.1584   -2.8975   -4.3697 C   0  0  0  0  0  0  0  0  0  0  0  0
   16.0889   -2.9304   -3.0536 C   0  0  0  0  0  0  0  0  0  0  0  0
   16.4348   -4.1179   -2.2370 C   0  0  0  0  0  0  0  0  0  0  0  0
   17.8921   -4.5334   -2.4366 C   0  0  2  0  0  0  0  0  0  0  0  0
   18.5691   -3.4399   -3.1892 C   0  0  0  0  0  0  0  0  0  0  0  0
   19.5957   -2.8253   -2.5157 O   0  0  0  0  0  0  0  0  0  0  0  0
   19.2131   -1.6357   -1.9001 C   0  0  0  0  0  0  0  0  0  0  0  0
   20.3300   -0.6407   -1.8350 C   0  0  0  0  0  0  0  0  0  0  0  0
   17.8847   -5.8574   -3.1247 C   0  0  0  0  0  0  0  0  0  0  0  0
   18.8755   -5.9919   -4.2323 C   0  0  1  0  0  0  0  0  0  0  0  0
   20.0286   -6.8527   -3.7003 C   0  0  0  0  0  0  0  0  0  0  0  0
   18.2785   -6.7506   -5.3709 C   0  0  0  0  0  0  0  0  0  0  0  0
   18.1652   -8.0757   -5.3155 C   0  0  0  0  0  0  0  0  0  0  0  0
   17.5812   -8.8443   -6.4236 C   0  0  0  0  0  0  0  0  0  0  0  0
   18.6019   -9.5037   -7.1288 O   0  0  0  0  0  0  0  0  0  0  0  0
   18.6317   -8.9831   -8.4200 C   0  0  0  0  0  0  0  0  0  0  0  0
   19.9610   -8.3547   -8.6421 C   0  0  0  0  0  0  0  0  0  0  0  0
   20.8106   -8.3714   -7.7816 O   0  0  0  0  0  0  0  0  0  0  0  0
   15.6647   -1.7780   -2.3982 O   0  0  0  0  0  0  0  0  0  0  0  0
   15.2932   -0.6085   -3.1042 C   0  0  0  0  0  0  0  0  0  0  0  0
   14.0152   -0.8051   -3.8838 C   0  0  0  0  0  3  0  0  0  0  0  0
   13.8139    0.3408   -4.6588 O   0  0  0  0  0  0  0  0  0  0  0  0
   13.8749    0.0352   -5.9548 O   0  0  0  0  0  0  0  0  0  0  0  0
  1  2  1  0
  2  3  1  0
  3  4  2  3
  4  5  1  0
  5  6  2  3
  6  7  1  0
  7  8  1  0
  8  9  1  6
  9 10  1  0
 10 11  1  0
 11 12  1  0
  8 13  1  0
 13 14  1  0
 14 15  1  1
 14 16  1  0
 16 17  2  3
 17 18  1  0
 18 19  1  0
 19 20  1  0
 20 21  1  0
 21 22  2  0
  6 23  1  0
 23 24  1  0
 24 25  1  0
 25 26  1  0
 26 27  1  0
 16  1  1  0
M  RAD  1  25   2
M  END
>  <docking_score>  (2) 
-3.351

$$$$

     RDKit          3D

 27 27  0  0  0  0  0  0  0  0999 V2000
   18.9286   -4.5106   -2.7793 C   0  0  0  0  0  0  0  0  0  0  0  0
   20.1726   -3.9683   -2.3976 O   0  0  0  0  0  0  0  0  0  0  0  0
   20.5294   -2.6361   -2.6552 C   0  0  0  0  0  0  0  0  0  0  0  0
   19.5818   -1.8509   -3.1086 C   0  0  0  0  0  0  0  0  0  0  0  0
   19.7204   -0.4600   -3.4385 C   0  0  0  0  0  0  0  0  0  0  0  0
   19.9771    0.0150   -4.6411 C   0  0  0  0  0  0  0  0  0  0  0  0
   20.1620   -0.8328   -5.8426 C   0  0  0  0  0  0  0  0  0  0  0  0
   18.9133   -1.6609   -6.1450 C   0  0  2  0  0  0  0  0  0  0  0  0
   17.8143   -1.1429   -5.2823 C   0  0  0  0  0  0  0  0  0  0  0  0
   16.6345   -0.8923   -5.9386 O   0  0  0  0  0  0  0  0  0  0  0  0
   15.5105   -1.2826   -5.2142 C   0  0  0  0  0  0  0  0  0  0  0  0
   14.3376   -0.3823   -5.4498 C   0  0  0  0  0  0  0  0  0  0  0  0
   19.2665   -3.0930   -5.9190 C   0  0  0  0  0  0  0  0  0  0  0  0
   18.2347   -3.8830   -5.1856 C   0  0  1  0  0  0  0  0  0  0  0  0
   17.5186   -4.7576   -6.2229 C   0  0  0  0  0  0  0  0  0  0  0  0
   18.8877   -4.8223   -4.2265 C   0  0  0  0  0  0  0  0  0  0  0  0
   19.4422   -5.9528   -4.6581 C   0  0  0  0  0  0  0  0  0  0  0  0
   20.0906   -6.8930   -3.7333 C   0  0  0  0  0  0  0  0  0  0  0  0
   19.4847   -8.1558   -3.8440 O   0  0  0  0  0  0  0  0  0  0  0  0
   19.1793   -8.3649   -5.1865 C   0  0  0  0  0  0  0  0  0  0  0  0
   17.7836   -8.8701   -5.2770 C   0  0  0  0  0  0  0  0  0  0  0  0
   16.9919   -8.3810   -6.0493 O   0  0  0  0  0  0  0  0  0  0  0  0
   20.0792    1.3959   -4.7842 O   0  0  0  0  0  0  0  0  0  0  0  0
   20.7171    1.9880   -5.9008 C   0  0  0  0  0  0  0  0  0  0  0  0
   20.3589    3.4478   -6.0436 C   0  0  0  0  0  3  0  0  0  0  0  0
   20.8256    4.1095   -4.9041 O   0  0  0  0  0  0  0  0  0  0  0  0
   20.8050    5.4281   -5.0981 O   0  0  0  0  0  0  0  0  0  0  0  0
  1  2  1  0
  2  3  1  0
  3  4  2  3
  4  5  1  0
  5  6  2  3
  6  7  1  0
  7  8  1  0
  8  9  1  1
  9 10  1  0
 10 11  1  0
 11 12  1  0
  8 13  1  0
 13 14  1  0
 14 15  1  6
 14 16  1  0
 16 17  2  3
 17 18  1  0
 18 19  1  0
 19 20  1  0
 20 21  1  0
 21 22  2  0
  6 23  1  0
 23 24  1  0
 24 25  1  0
 25 26  1  0
 26 27  1  0
 16  1  1  0
M  RAD  1  25   2
M  END
>  <docking_score>  (3) 
-3.2200000000000002

$$$$
