
     RDKit          3D

 16 17  0  0  0  0  0  0  0  0999 V2000
   15.8932   -2.2051   -3.3972 N   0  0  0  0  0  0  0  0  0  0  0  0
   14.9922   -1.3509   -3.9824 N   0  0  0  0  0  0  0  0  0  0  0  0
   14.1412   -1.8191   -5.0138 N   0  0  0  0  0  0  0  0  0  0  0  0
   14.2550   -3.0561   -5.3620 C   0  0  0  0  0  0  0  0  0  0  0  0
   15.1822   -3.9802   -4.7762 C   0  0  0  0  0  0  0  0  0  0  0  0
   15.9506   -3.5238   -3.8360 C   0  0  0  0  0  0  0  0  0  0  0  0
   15.3833   -5.4219   -5.0817 C   0  0  0  0  0  0  0  0  0  0  0  0
   16.7018   -5.8272   -4.6645 C   0  0  0  0  0  0  0  0  0  0  0  0
   17.4493   -5.8227   -3.6339 C   0  0  0  0  0  0  0  0  0  0  0  0
   18.8767   -6.4158   -3.7105 C   0  0  0  0  0  0  0  0  0  0  0  0
   19.8151   -5.4022   -4.2965 C   0  0  0  0  0  0  0  0  0  0  0  0
   20.4303   -4.7026   -3.1863 N   0  0  0  0  0  0  0  0  0  0  0  0
   17.1286   -5.3386   -2.3720 N   0  0  0  0  0  0  0  0  0  0  0  0
   16.5064   -4.2112   -1.9225 N   0  0  0  0  0  0  0  0  0  0  0  0
   17.4195   -3.0923   -1.8872 C   0  0  0  0  0  0  0  0  0  0  0  0
   16.7561   -1.8515   -2.3620 N   0  0  0  0  0  0  0  0  0  0  0  0
  1  2  1  0
  2  3  1  0
  3  4  2  0
  4  5  1  0
  5  6  2  0
  5  7  1  0
  7  8  1  0
  8  9  2  3
  9 10  1  0
 10 11  1  0
 11 12  1  0
  9 13  1  0
 13 14  1  0
 14 15  1  0
 15 16  1  0
  6  1  1  0
 16  1  1  0
M  END
>  <docking_score>  (1) 
-4.649

$$$$

     RDKit          3D

 16 17  0  0  0  0  0  0  0  0999 V2000
   15.2005   -3.6549   -5.6059 N   0  0  0  0  0  0  0  0  0  0  0  0
   14.7436   -4.7643   -6.2725 N   0  0  0  0  0  0  0  0  0  0  0  0
   14.8589   -6.0445   -5.6764 N   0  0  0  0  0  0  0  0  0  0  0  0
   15.3996   -6.1085   -4.5069 C   0  0  0  0  0  0  0  0  0  0  0  0
   15.8887   -4.9746   -3.7777 C   0  0  0  0  0  0  0  0  0  0  0  0
   15.7726   -3.8154   -4.3483 C   0  0  0  0  0  0  0  0  0  0  0  0
   16.5056   -4.9290   -2.4250 C   0  0  0  0  0  0  0  0  0  0  0  0
   17.2963   -3.7316   -2.2921 C   0  0  0  0  0  0  0  0  0  0  0  0
   17.1918   -2.4685   -2.4136 C   0  0  0  0  0  0  0  0  0  0  0  0
   18.4152   -1.5610   -2.1404 C   0  0  0  0  0  0  0  0  0  0  0  0
   19.5208   -1.9007   -3.0963 C   0  0  0  0  0  0  0  0  0  0  0  0
   20.7672   -1.5537   -2.4433 N   0  0  0  0  0  0  0  0  0  0  0  0
   16.0536   -1.7550   -2.7671 N   0  0  0  0  0  0  0  0  0  0  0  0
   15.0901   -1.9235   -3.7177 N   0  0  0  0  0  0  0  0  0  0  0  0
   15.5367   -1.4368   -5.0025 C   0  0  0  0  0  0  0  0  0  0  0  0
   15.1132   -2.3522   -6.0924 N   0  0  0  0  0  0  0  0  0  0  0  0
  1  2  1  0
  2  3  1  0
  3  4  2  0
  4  5  1  0
  5  6  2  0
  5  7  1  0
  7  8  1  0
  8  9  2  3
  9 10  1  0
 10 11  1  0
 11 12  1  0
  9 13  1  0
 13 14  1  0
 14 15  1  0
 15 16  1  0
  6  1  1  0
 16  1  1  0
M  END
>  <docking_score>  (2) 
-4.6120000000000001

$$$$

     RDKit          3D

 16 17  0  0  0  0  0  0  0  0999 V2000
   15.3175   -3.2323   -6.6901 N   0  0  0  0  0  0  0  0  0  0  0  0
   15.0796   -4.2129   -7.6205 N   0  0  0  0  0  0  0  0  0  0  0  0
   15.1363   -5.5767   -7.2404 N   0  0  0  0  0  0  0  0  0  0  0  0
   15.4143   -5.8387   -6.0082 C   0  0  0  0  0  0  0  0  0  0  0  0
   15.6686   -4.8446   -5.0064 C   0  0  0  0  0  0  0  0  0  0  0  0
   15.6126   -3.6045   -5.3827 C   0  0  0  0  0  0  0  0  0  0  0  0
   15.9750   -5.0302   -3.5627 C   0  0  0  0  0  0  0  0  0  0  0  0
   16.6486   -3.8616   -3.0553 C   0  0  0  0  0  0  0  0  0  0  0  0
   16.5008   -2.5992   -2.9802 C   0  0  0  0  0  0  0  0  0  0  0  0
   17.5824   -1.7331   -2.2911 C   0  0  0  0  0  0  0  0  0  0  0  0
   18.7942   -1.6416   -3.1712 C   0  0  0  0  0  0  0  0  0  0  0  0
   19.7185   -0.7304   -2.5266 N   0  0  0  0  0  0  0  0  0  0  0  0
   15.4271   -1.8548   -3.4518 N   0  0  0  0  0  0  0  0  0  0  0  0
   14.7030   -1.8682   -4.6076 N   0  0  0  0  0  0  0  0  0  0  0  0
   15.3881   -1.1519   -5.6586 C   0  0  0  0  0  0  0  0  0  0  0  0
   15.2631   -1.8654   -6.9549 N   0  0  0  0  0  0  0  0  0  0  0  0
  1  2  1  0
  2  3  1  0
  3  4  2  0
  4  5  1  0
  5  6  2  0
  5  7  1  0
  7  8  1  0
  8  9  2  3
  9 10  1  0
 10 11  1  0
 11 12  1  0
  9 13  1  0
 13 14  1  0
 14 15  1  0
 15 16  1  0
  6  1  1  0
 16  1  1  0
M  END
>  <docking_score>  (3) 
-4.4969999999999999

$$$$
