
     RDKit          3D

 60 60  0  0  0  0  0  0  0  0999 V2000
   15.6072   -1.2632   -1.9635 C   0  0  0  0  0  0  0  0  0  0  0  0
   15.3641   -2.0108   -3.2216 C   0  0  2  0  0  0  0  0  0  0  0  0
   16.6041   -2.4802   -3.9183 C   0  0  0  0  0  0  0  0  0  0  0  0
   16.3289   -3.2665   -5.1737 C   0  0  0  0  0  0  0  0  0  0  0  0
   15.9942   -4.6981   -4.8728 C   0  0  0  0  0  0  0  0  0  0  0  0
   17.2495   -5.5002   -4.6864 C   0  0  1  0  0  0  0  0  0  0  0  0
   17.2315   -6.0921   -3.3974 O   0  0  0  0  0  0  0  0  0  0  0  0
   17.1975   -6.6508   -5.7138 C   0  0  1  0  0  0  0  0  0  0  0  0
   17.5519   -6.1094   -6.9645 O   0  0  0  0  0  0  0  0  0  0  0  0
   18.2548   -7.6408   -5.3315 C   0  0  0  0  0  3  0  0  0  0  0  0
   17.7343   -8.9756   -5.2123 N   0  0  0  0  0  0  0  0  0  0  0  0
   14.4695   -1.2721   -4.1976 C   0  0  0  0  0  0  0  0  0  0  0  0
   13.1362   -1.0890   -3.5547 C   0  0  0  0  0  0  0  0  0  0  0  0
   12.0171   -0.9258   -4.5544 C   0  0  2  0  0  0  0  0  0  0  0  0
   12.3988   -1.3541   -5.9396 C   0  0  0  0  0  2  0  0  0  0  0  0
   11.5187    0.4957   -4.6281 C   0  0  2  0  0  0  0  0  0  0  0  0
   12.5520    1.4272   -4.5358 O   0  0  0  0  0  0  0  0  0  0  0  0
   13.4736    0.8841   -3.6137 C   0  0  0  0  0  3  0  0  0  0  0  0
   14.6176    1.8512   -3.5085 C   0  0  0  0  0  2  0  0  0  0  0  0
   10.7755   -1.6772   -4.1410 C   0  0  0  0  0  0  0  0  0  0  0  0
   10.1565   -0.7846   -3.0960 C   0  0  0  0  0  0  0  0  0  0  0  0
   10.7157    0.6059   -3.3481 C   0  0  2  0  0  0  0  0  0  0  0  0
    9.5973    1.4106   -3.6659 O   0  0  0  0  0  0  0  0  0  0  0  0
    9.1134    1.8966   -2.5637 O   0  0  0  0  0  0  0  0  0  0  0  0
    8.3749    3.0332   -2.8940 C   0  0  1  0  0  0  0  0  0  0  0  0
    7.0087    2.6897   -3.4216 C   0  0  0  0  0  3  0  0  0  0  0  0
    7.0870    2.2019   -4.8499 C   0  0  0  0  0  0  0  0  0  0  0  0
    5.7681    2.5330   -5.5239 C   0  0  0  0  0  3  0  0  0  0  0  0
    5.6562    1.8524   -6.8812 C   0  0  0  0  0  3  0  0  0  0  0  0
    6.3699    0.5229   -6.7872 C   0  0  0  0  0  3  0  0  0  0  0  0
    6.7275   -0.0198   -8.1517 C   0  0  0  0  0  0  0  0  0  0  0  0
    5.6454   -0.9415   -8.6832 C   0  0  0  0  0  0  0  0  0  0  0  0
    8.1849    3.9302   -1.6863 C   0  0  2  0  0  0  0  0  0  0  0  0
    9.2093    3.5237   -0.6325 C   0  0  0  0  0  2  0  0  0  0  0  0
    6.7952    3.6847   -1.1464 C   0  0  0  0  0  0  0  0  0  0  0  0
    6.2554    5.0124   -0.6549 C   0  0  2  0  0  0  0  0  0  0  0  0
    7.0234    6.1475   -1.3384 C   0  0  0  0  0  0  0  0  0  0  0  0
    6.6402    5.1077    0.8273 C   0  0  0  0  0  0  0  0  0  0  0  0
    5.3694    5.4392    1.5761 C   0  0  2  0  0  0  0  0  0  0  0  0
    4.1402    5.0214    0.8242 C   0  0  0  0  0  2  0  0  0  0  0  0
    5.3756    6.9224    1.8708 C   0  0  0  0  0  0  0  0  0  0  0  0
    4.4863    7.1532    3.0777 C   0  0  1  0  0  0  0  0  0  0  0  0
    4.5583    5.9798    4.0317 C   0  0  0  0  0  3  0  0  0  0  0  0
    5.9313    5.8875    4.6142 C   0  0  0  0  0  2  0  0  0  0  0  0
    5.0273    8.3638    3.8045 C   0  0  1  0  0  0  0  0  0  0  0  0
    4.2021    9.5634    3.3695 C   0  0  0  0  0  2  0  0  0  0  0  0
    4.8344    8.1622    5.2925 C   0  0  0  0  0  3  0  0  0  0  0  0
    4.2234    9.3531    5.9575 C   0  0  0  0  0  3  0  0  0  0  0  0
    2.8216    9.1457    6.4308 C   0  0  0  0  0  0  0  0  0  0  0  0
    2.8150    8.3406    7.7152 C   0  0  0  0  0  0  0  0  0  0  0  0
    2.9529    9.2810    8.9064 C   0  0  1  0  0  0  0  0  0  0  0  0
    4.1732    8.9379    9.7218 C   0  0  0  0  0  2  0  0  0  0  0  0
    2.9210   10.7239    8.4404 C   0  0  0  0  0  0  0  0  0  0  0  0
    4.0750   11.4072    8.7434 O   0  0  0  0  0  0  0  0  0  0  0  0
    3.7955   12.5699    9.5080 C   0  0  1  0  0  0  0  0  0  0  0  0
    2.3853   12.7466    9.3481 O   0  0  0  0  0  0  0  0  0  0  0  0
    3.9413   12.2153   10.9946 C   0  0  0  0  0  3  0  0  0  0  0  0
    5.3624   12.2883   11.4643 C   0  0  0  0  0  3  0  0  0  0  0  0
    5.7423   13.7045   11.8055 C   0  0  0  0  0  3  0  0  0  0  0  0
    6.3212   14.3837   10.5794 C   0  0  0  0  0  2  0  0  0  0  0  0
  2  1  1  1
  2  3  1  0
  3  4  1  0
  4  5  1  0
  5  6  1  0
  6  7  1  1
  6  8  1  0
  8  9  1  6
  8 10  1  0
 10 11  1  0
  2 12  1  0
 12 13  1  0
 13 14  1  0
 14 15  1  6
 14 16  1  0
 16 17  1  1
 17 18  1  0
 18 19  1  0
 14 20  1  0
 20 21  1  0
 21 22  1  0
 22 23  1  6
 23 24  1  0
 24 25  1  0
 25 26  1  1
 26 27  1  0
 27 28  1  0
 28 29  1  0
 29 30  1  0
 30 31  1  0
 31 32  1  0
 25 33  1  0
 33 34  1  1
 33 35  1  0
 35 36  1  0
 36 37  1  6
 36 38  1  0
 38 39  1  0
 39 40  1  6
 39 41  1  0
 42 41  1  6
 42 43  1  0
 43 44  1  0
 42 45  1  0
 45 46  1  6
 45 47  1  0
 47 48  1  0
 48 49  1  0
 49 50  1  0
 50 51  1  0
 51 52  1  6
 51 53  1  0
 53 54  1  0
 54 55  1  0
 55 56  1  1
 55 57  1  0
 57 58  1  0
 58 59  1  0
 59 60  1  0
 22 16  1  0
M  RAD  8  10   2  15   3  18   2  19   3  26   2  28   2  29   2  30   2
M  RAD  8  34   3  40   3  43   2  44   3  46   3  47   2  48   2  52   3
M  RAD  4  57   2  58   2  59   2  60   3
M  END
>  <docking_score>  (1) 
22.120000000000001

$$$$
