
     RDKit          3D

 21 21  0  0  0  0  0  0  0  0999 V2000
   18.9954   -3.6312   -2.0018 C   0  0  0  0  0  0  0  0  0  0  0  0
   20.4461   -4.0419   -1.9300 C   0  0  2  0  0  0  0  0  0  0  0  0
   21.3819   -2.9282   -2.3190 C   0  0  0  0  0  0  0  0  0  0  0  0
   20.6892   -5.3021   -2.7359 C   0  0  0  0  0  0  0  0  0  0  0  0
   19.3815   -5.7852   -3.2739 C   0  0  0  0  0  0  0  0  0  0  0  0
   19.4210   -7.1741   -3.8271 C   0  0  0  0  0  0  0  0  0  0  0  0
   18.7490   -7.3340   -5.1479 C   0  0  2  0  0  0  0  0  0  0  0  0
   19.5256   -6.7155   -6.2955 C   0  0  0  0  0  0  0  0  0  0  0  0
   17.3851   -6.7146   -5.1778 C   0  0  0  0  0  0  0  0  0  0  0  0
   16.6433   -7.0060   -6.2342 C   0  0  0  0  0  0  0  0  0  0  0  0
   15.3095   -6.5153   -6.4542 C   0  0  0  0  0  0  0  0  0  0  0  0
   14.7918   -5.4620   -5.8723 C   0  0  0  0  0  0  0  0  0  0  0  0
   13.4122   -4.9623   -6.1057 C   0  0  0  0  0  0  0  0  0  0  0  0
   15.6291   -4.7025   -4.9089 C   0  0  0  0  0  0  0  0  0  0  0  0
   15.0041   -3.3806   -4.5376 C   0  0  0  0  0  0  0  0  0  0  0  0
   15.7793   -2.7413   -3.4325 C   0  0  2  0  0  0  0  0  0  0  0  0
   15.1391   -1.1425   -3.0411 Cl  0  0  0  0  0  0  0  0  0  0  0  0
   17.2120   -2.5689   -3.8946 C   0  0  0  0  0  0  0  0  0  0  0  0
   17.9776   -1.6926   -2.9698 C   0  0  0  0  0  0  0  0  0  0  0  0
   18.8236   -2.1712   -2.0698 C   0  0  0  0  0  0  0  0  0  0  0  0
   19.5267   -1.3422   -1.2184 O   0  0  0  0  0  0  0  0  0  0  0  0
  1  2  1  0
  2  3  1  6
  2  4  1  0
  4  5  1  0
  5  6  1  0
  6  7  1  0
  7  8  1  6
  7  9  1  0
  9 10  2  3
 10 11  1  0
 11 12  2  3
 12 13  1  0
 12 14  1  0
 14 15  1  0
 15 16  1  0
 16 17  1  6
 16 18  1  0
 18 19  1  0
 19 20  2  3
 20 21  1  0
 20  1  1  0
M  END
>  <docking_score>  (1) 
-5.8120000000000003

$$$$

     RDKit          3D

 21 21  0  0  0  0  0  0  0  0999 V2000
   18.7214   -6.9820   -3.8527 C   0  0  0  0  0  0  0  0  0  0  0  0
   18.7170   -7.9268   -5.0298 C   0  0  2  0  0  0  0  0  0  0  0  0
   20.0195   -7.9152   -5.7851 C   0  0  0  0  0  0  0  0  0  0  0  0
   17.5293   -7.6572   -5.9317 C   0  0  0  0  0  0  0  0  0  0  0  0
   16.6889   -6.5899   -5.3093 C   0  0  0  0  0  0  0  0  0  0  0  0
   15.3355   -6.4364   -5.9268 C   0  0  0  0  0  0  0  0  0  0  0  0
   14.9373   -5.0270   -6.2037 C   0  0  2  0  0  0  0  0  0  0  0  0
   15.6834   -4.4107   -7.3724 C   0  0  0  0  0  0  0  0  0  0  0  0
   15.1679   -4.1235   -5.0310 C   0  0  0  0  0  0  0  0  0  0  0  0
   14.6375   -2.9145   -5.1224 C   0  0  0  0  0  0  0  0  0  0  0  0
   14.7430   -1.8994   -4.1092 C   0  0  0  0  0  0  0  0  0  0  0  0
   15.6471   -1.8757   -3.1616 C   0  0  0  0  0  0  0  0  0  0  0  0
   15.7483   -0.8224   -2.1186 C   0  0  0  0  0  0  0  0  0  0  0  0
   16.6489   -2.9712   -3.1118 C   0  0  0  0  0  0  0  0  0  0  0  0
   17.7726   -2.6652   -2.1529 C   0  0  0  0  0  0  0  0  0  0  0  0
   18.6491   -3.8640   -1.9937 C   0  0  2  0  0  0  0  0  0  0  0  0
   20.0363   -3.5118   -0.9588 Cl  0  0  0  0  0  0  0  0  0  0  0  0
   19.1748   -4.2536   -3.3604 C   0  0  0  0  0  0  0  0  0  0  0  0
   20.2680   -5.2551   -3.2549 C   0  0  0  0  0  0  0  0  0  0  0  0
   20.0775   -6.5460   -3.4824 C   0  0  0  0  0  0  0  0  0  0  0  0
   21.1049   -7.4629   -3.3797 O   0  0  0  0  0  0  0  0  0  0  0  0
  1  2  1  0
  2  3  1  6
  2  4  1  0
  4  5  1  0
  5  6  1  0
  6  7  1  0
  7  8  1  6
  7  9  1  0
  9 10  2  3
 10 11  1  0
 11 12  2  3
 12 13  1  0
 12 14  1  0
 14 15  1  0
 15 16  1  0
 16 17  1  1
 16 18  1  0
 18 19  1  0
 19 20  2  3
 20 21  1  0
 20  1  1  0
M  END
>  <docking_score>  (2) 
-5.7560000000000002

$$$$

     RDKit          3D

 21 21  0  0  0  0  0  0  0  0999 V2000
   18.1091   -6.7723   -5.1729 C   0  0  0  0  0  0  0  0  0  0  0  0
   19.0478   -7.3216   -6.2195 C   0  0  2  0  0  0  0  0  0  0  0  0
   20.4860   -7.3008   -5.7739 C   0  0  0  0  0  0  0  0  0  0  0  0
   18.8485   -6.6150   -7.5452 C   0  0  0  0  0  0  0  0  0  0  0  0
   17.7129   -5.6535   -7.4085 C   0  0  0  0  0  0  0  0  0  0  0  0
   17.2074   -5.1123   -8.7078 C   0  0  0  0  0  0  0  0  0  0  0  0
   16.9862   -3.6383   -8.7207 C   0  0  2  0  0  0  0  0  0  0  0  0
   18.2751   -2.8378   -8.7398 C   0  0  0  0  0  0  0  0  0  0  0  0
   16.2107   -3.1629   -7.5300 C   0  0  0  0  0  0  0  0  0  0  0  0
   15.7861   -1.9107   -7.5819 C   0  0  0  0  0  0  0  0  0  0  0  0
   15.0273   -1.2636   -6.5457 C   0  0  0  0  0  0  0  0  0  0  0  0
   14.9683   -1.6612   -5.2990 C   0  0  0  0  0  0  0  0  0  0  0  0
   14.1812   -0.9862   -4.2348 C   0  0  0  0  0  0  0  0  0  0  0  0
   15.7359   -2.8701   -4.9046 C   0  0  0  0  0  0  0  0  0  0  0  0
   15.7908   -3.0400   -3.4066 C   0  0  0  0  0  0  0  0  0  0  0  0
   16.4043   -4.3580   -3.0640 C   0  0  2  0  0  0  0  0  0  0  0  0
   16.5816   -4.5486   -1.3171 Cl  0  0  0  0  0  0  0  0  0  0  0  0
   17.7870   -4.4137   -3.6811 C   0  0  0  0  0  0  0  0  0  0  0  0
   18.5680   -5.5647   -3.1572 C   0  0  0  0  0  0  0  0  0  0  0  0
   18.7330   -6.6861   -3.8427 C   0  0  0  0  0  0  0  0  0  0  0  0
   19.4619   -7.7459   -3.3405 O   0  0  0  0  0  0  0  0  0  0  0  0
  1  2  1  0
  2  3  1  1
  2  4  1  0
  4  5  1  0
  5  6  1  0
  6  7  1  0
  7  8  1  1
  7  9  1  0
  9 10  2  3
 10 11  1  0
 11 12  2  3
 12 13  1  0
 12 14  1  0
 14 15  1  0
 15 16  1  0
 16 17  1  1
 16 18  1  0
 18 19  1  0
 19 20  2  3
 20 21  1  0
 20  1  1  0
M  END
>  <docking_score>  (3) 
-5.3259999999999996

$$$$
