
     RDKit          3D

 18 19  0  0  0  0  0  0  0  0999 V2000
   16.8941   -2.5037   -4.1722 C   0  0  1  0  0  0  0  0  0  0  0  0
   16.3332   -2.5997   -5.5425 C   0  0  0  0  0  2  0  0  0  0  0  0
   14.8189   -2.6609   -5.4284 C   0  0  0  0  0  0  0  0  0  0  0  0
   14.4175   -1.4354   -4.6467 C   0  0  2  0  0  0  0  0  0  0  0  0
   14.8991   -0.3248   -5.3686 O   0  0  0  0  0  0  0  0  0  0  0  0
   14.8976   -1.3816   -3.3829 O   0  0  0  0  0  0  0  0  0  0  0  0
   16.0687   -1.9934   -3.1106 C   0  0  2  0  0  0  0  0  0  0  0  0
   16.7547   -1.4387   -2.0005 O   0  0  0  0  0  0  0  0  0  0  0  0
   16.2266   -3.4863   -3.1842 C   0  0  2  0  0  0  0  0  0  0  0  0
   17.2417   -4.1719   -2.3028 C   0  0  0  0  0  0  0  0  0  0  0  0
   17.4734   -5.6075   -2.7703 C   0  0  0  0  0  0  0  0  0  0  0  0
   18.9447   -5.7716   -3.0848 C   0  0  0  0  0  0  0  0  0  0  0  0
   19.0883   -5.5651   -4.5951 C   0  0  0  0  0  3  0  0  0  0  0  0
   17.9654   -6.3775   -5.2390 C   0  0  0  0  0  3  0  0  0  0  0  0
   17.6215   -5.7007   -6.5359 C   0  0  0  0  0  0  0  0  0  0  0  0
   17.1343   -6.7292   -7.5280 C   0  0  0  0  0  3  0  0  0  0  0  0
   16.4011   -6.0716   -8.6660 C   0  0  0  0  0  0  0  0  0  0  0  0
   15.4533   -5.1879   -8.1731 O   0  0  0  0  0  0  0  0  0  0  0  0
  1  2  1  6
  2  3  1  0
  3  4  1  0
  4  5  1  6
  4  6  1  0
  6  7  1  0
  7  8  1  1
  7  9  1  0
  9 10  1  1
 10 11  1  0
 11 12  1  0
 12 13  1  0
 13 14  1  0
 14 15  1  0
 15 16  1  0
 16 17  1  0
 17 18  1  0
  7  1  1  0
  9  1  1  0
M  RAD  4   2   3  13   2  14   2  16   2
M  END
>  <docking_score>  (1) 
-3.843

$$$$

     RDKit          3D

 18 19  0  0  0  0  0  0  0  0999 V2000
   15.7782   -1.7244   -3.3942 C   0  0  1  0  0  0  0  0  0  0  0  0
   16.2127   -2.0130   -2.0052 C   0  0  0  0  0  2  0  0  0  0  0  0
   17.3424   -3.0279   -2.0663 C   0  0  0  0  0  0  0  0  0  0  0  0
   18.3917   -2.4188   -2.9618 C   0  0  2  0  0  0  0  0  0  0  0  0
   18.7509   -1.1875   -2.3775 O   0  0  0  0  0  0  0  0  0  0  0  0
   17.9978   -2.2029   -4.2380 O   0  0  0  0  0  0  0  0  0  0  0  0
   16.6925   -1.9614   -4.4788 C   0  0  2  0  0  0  0  0  0  0  0  0
   16.4618   -1.2147   -5.6620 O   0  0  0  0  0  0  0  0  0  0  0  0
   15.6320   -3.0018   -4.2511 C   0  0  2  0  0  0  0  0  0  0  0  0
   14.3742   -2.9774   -5.0845 C   0  0  0  0  0  0  0  0  0  0  0  0
   14.2082   -4.2939   -5.8412 C   0  0  0  0  0  0  0  0  0  0  0  0
   14.9390   -4.1768   -7.1613 C   0  0  0  0  0  0  0  0  0  0  0  0
   15.3398   -5.5998   -7.5598 C   0  0  0  0  0  3  0  0  0  0  0  0
   15.9101   -6.2448   -6.2972 C   0  0  0  0  0  3  0  0  0  0  0  0
   17.4001   -6.3218   -6.4778 C   0  0  0  0  0  0  0  0  0  0  0  0
   18.0835   -5.5832   -5.3523 C   0  0  0  0  0  3  0  0  0  0  0  0
   17.6398   -6.1133   -4.0155 C   0  0  0  0  0  0  0  0  0  0  0  0
   18.6881   -6.7753   -3.3951 O   0  0  0  0  0  0  0  0  0  0  0  0
  1  2  1  1
  2  3  1  0
  3  4  1  0
  4  5  1  1
  4  6  1  0
  6  7  1  0
  7  8  1  6
  7  9  1  0
  9 10  1  6
 10 11  1  0
 11 12  1  0
 12 13  1  0
 13 14  1  0
 14 15  1  0
 15 16  1  0
 16 17  1  0
 17 18  1  0
  7  1  1  0
  9  1  1  0
M  RAD  4   2   3  13   2  14   2  16   2
M  END
>  <docking_score>  (2) 
-3.8250000000000002

$$$$

     RDKit          3D

 18 19  0  0  0  0  0  0  0  0999 V2000
   15.2404   -6.2349   -5.3134 C   0  0  1  0  0  0  0  0  0  0  0  0
   13.9252   -5.6419   -5.6596 C   0  0  0  0  0  2  0  0  0  0  0  0
   14.1762   -4.3279   -6.3810 C   0  0  0  0  0  0  0  0  0  0  0  0
   15.0643   -4.6668   -7.5516 C   0  0  2  0  0  0  0  0  0  0  0  0
   14.3689   -5.6239   -8.3176 O   0  0  0  0  0  0  0  0  0  0  0  0
   16.2787   -5.1639   -7.2218 O   0  0  0  0  0  0  0  0  0  0  0  0
   16.4032   -5.8518   -6.0681 C   0  0  2  0  0  0  0  0  0  0  0  0
   17.4759   -6.7792   -6.0726 O   0  0  0  0  0  0  0  0  0  0  0  0
   16.2254   -5.1997   -4.7256 C   0  0  2  0  0  0  0  0  0  0  0  0
   16.9653   -5.7456   -3.5290 C   0  0  0  0  0  0  0  0  0  0  0  0
   16.7935   -4.8202   -2.3259 C   0  0  0  0  0  0  0  0  0  0  0  0
   16.2664   -3.4911   -2.8220 C   0  0  0  0  0  0  0  0  0  0  0  0
   17.0032   -2.4107   -2.0258 C   0  0  0  0  0  3  0  0  0  0  0  0
   18.0615   -1.8413   -2.9698 C   0  0  0  0  0  3  0  0  0  0  0  0
   17.4386   -1.7688   -4.3355 C   0  0  0  0  0  0  0  0  0  0  0  0
   18.4920   -2.0306   -5.3850 C   0  0  0  0  0  3  0  0  0  0  0  0
   19.6855   -1.1367   -5.1819 C   0  0  0  0  0  0  0  0  0  0  0  0
   19.3743    0.1628   -5.5516 O   0  0  0  0  0  0  0  0  0  0  0  0
  1  2  1  6
  2  3  1  0
  3  4  1  0
  4  5  1  6
  4  6  1  0
  6  7  1  0
  7  8  1  1
  7  9  1  0
  9 10  1  1
 10 11  1  0
 11 12  1  0
 12 13  1  0
 13 14  1  0
 14 15  1  0
 15 16  1  0
 16 17  1  0
 17 18  1  0
  7  1  1  0
  9  1  1  0
M  RAD  4   2   3  13   2  14   2  16   2
M  END
>  <docking_score>  (3) 
-3.5659999999999998

$$$$
