
     RDKit          3D

 33 34  0  0  0  0  0  0  0  0999 V2000
   21.0748   -6.9354   -5.3356 C   0  0  0  0  0  0  0  0  0  0  0  0
   19.8180   -6.3625   -5.9645 C   0  0  1  0  0  0  0  0  0  0  0  0
   19.2193   -7.4801   -6.8105 C   0  0  0  0  0  0  0  0  0  0  0  0
   17.7181   -7.4009   -6.7840 C   0  0  2  0  0  0  0  0  0  0  0  0
   17.2387   -6.1802   -7.2494 O   0  0  0  0  0  0  0  0  0  0  0  0
   17.1455   -7.7018   -5.4091 C   0  0  2  0  0  0  0  0  0  0  0  0
   16.0279   -6.8994   -5.2517 O   0  0  0  0  0  0  0  0  0  0  0  0
   18.2101   -7.2953   -4.3970 C   0  0  1  0  0  0  0  0  0  0  0  0
   19.1621   -8.3258   -4.4041 O   0  0  0  0  0  0  0  0  0  0  0  0
   18.8022   -5.9985   -4.8875 C   0  0  1  0  0  0  0  0  0  0  0  0
   19.3968   -5.2141   -3.8371 N   0  0  0  0  0  0  0  0  0  0  0  0
   18.4785   -4.3114   -3.1967 C   0  0  1  0  0  0  0  0  0  0  0  0
   18.9815   -3.9599   -1.8117 C   0  0  0  0  0  0  0  0  0  0  0  0
   20.4324   -3.5248   -1.8308 C   0  0  0  0  0  0  0  0  0  0  0  0
   21.3015   -4.6193   -1.8358 O   0  0  0  0  0  0  0  0  0  0  0  0
   20.6518   -2.7127   -0.7163 O   0  0  0  0  0  0  0  0  0  0  0  0
   20.6135   -2.7431   -2.9681 O   0  0  0  0  0  0  0  0  0  0  0  0
   19.8434   -1.5967   -2.8475 C   0  0  1  0  0  0  0  0  0  0  0  0
   20.4182   -0.4162   -3.5865 C   0  0  0  0  0  0  0  0  0  0  0  0
   18.4132   -1.7995   -3.2620 C   0  0  2  0  0  0  0  0  0  0  0  0
   17.5218   -1.6400   -2.2174 O   0  0  0  0  0  0  0  0  0  0  0  0
   18.1716   -3.0835   -3.9966 C   0  0  1  0  0  0  0  0  0  0  0  0
   18.7683   -3.0551   -5.2415 O   0  0  0  0  0  0  0  0  0  0  0  0
   18.1855   -2.0822   -5.9286 O   0  0  0  0  0  0  0  0  0  0  0  0
   17.3887   -2.5504   -6.8650 O   0  0  0  0  0  0  0  0  0  0  0  0
   16.0591   -2.5058   -6.4749 C   0  0  2  0  0  0  0  0  0  0  0  0
   15.3339   -3.3064   -7.3609 O   0  0  0  0  0  0  0  0  0  0  0  0
   15.5807   -1.1921   -6.5508 O   0  0  0  0  0  0  0  0  0  0  0  0
   14.3378   -1.1261   -6.1508 O   0  0  0  0  0  0  0  0  0  0  0  0
   14.0404    0.0955   -5.5277 C   0  0  2  0  0  0  0  0  0  0  0  0
   15.2150    0.8596   -5.6125 O   0  0  0  0  0  0  0  0  0  0  0  0
   13.7215   -0.2376   -4.1039 C   0  0  0  0  0  0  0  0  0  0  0  0
   14.4765   -1.0073   -3.5154 O   0  0  0  0  0  0  0  0  0  0  0  0
  2  1  1  1
  2  3  1  0
  3  4  1  0
  4  5  1  1
  4  6  1  0
  6  7  1  1
  6  8  1  0
  8  9  1  6
  8 10  1  0
 10 11  1  1
 12 11  1  6
 12 13  1  0
 13 14  1  0
 14 15  1  0
 14 16  1  0
 14 17  1  0
 17 18  1  0
 18 19  1  6
 18 20  1  0
 20 21  1  1
 20 22  1  0
 22 23  1  6
 23 24  1  0
 24 25  1  0
 25 26  1  0
 26 27  1  6
 26 28  1  0
 28 29  1  0
 29 30  1  0
 30 31  1  1
 30 32  1  0
 32 33  2  0
 10  2  1  0
 22 12  1  0
M  END
>  <docking_score>  (1) 
-4.6109999999999998

$$$$

     RDKit          3D

 33 34  0  0  0  0  0  0  0  0999 V2000
   21.3822   -6.4851   -6.4612 C   0  0  0  0  0  0  0  0  0  0  0  0
   19.9454   -6.6370   -6.9260 C   0  0  1  0  0  0  0  0  0  0  0  0
   19.8157   -8.0644   -7.4447 C   0  0  0  0  0  0  0  0  0  0  0  0
   18.4427   -8.5998   -7.1466 C   0  0  2  0  0  0  0  0  0  0  0  0
   17.4328   -7.8249   -7.7089 O   0  0  0  0  0  0  0  0  0  0  0  0
   18.2009   -8.7799   -5.6574 C   0  0  2  0  0  0  0  0  0  0  0  0
   16.8668   -8.4899   -5.4260 O   0  0  0  0  0  0  0  0  0  0  0  0
   19.0751   -7.7523   -4.9483 C   0  0  1  0  0  0  0  0  0  0  0  0
   20.3765   -8.2763   -4.9647 O   0  0  0  0  0  0  0  0  0  0  0  0
   18.9865   -6.4794   -5.7513 C   0  0  1  0  0  0  0  0  0  0  0  0
   19.2790   -5.3006   -4.9786 N   0  0  0  0  0  0  0  0  0  0  0  0
   18.1374   -4.7594   -4.2916 C   0  0  1  0  0  0  0  0  0  0  0  0
   18.3583   -4.8224   -2.7943 C   0  0  0  0  0  0  0  0  0  0  0  0
   19.7030   -4.2491   -2.3968 C   0  0  0  0  0  0  0  0  0  0  0  0
   20.7316   -5.1816   -2.5574 O   0  0  0  0  0  0  0  0  0  0  0  0
   19.6126   -3.8226   -1.0703 O   0  0  0  0  0  0  0  0  0  0  0  0
   19.9234   -3.1267   -3.1898 O   0  0  0  0  0  0  0  0  0  0  0  0
   18.9651   -2.1721   -2.8862 C   0  0  1  0  0  0  0  0  0  0  0  0
   19.4424   -0.7608   -3.1107 C   0  0  0  0  0  0  0  0  0  0  0  0
   17.6681   -2.3845   -3.6153 C   0  0  2  0  0  0  0  0  0  0  0  0
   16.6141   -2.6697   -2.7675 O   0  0  0  0  0  0  0  0  0  0  0  0
   17.7570   -3.3799   -4.7323 C   0  0  1  0  0  0  0  0  0  0  0  0
   18.5235   -2.8854   -5.7690 O   0  0  0  0  0  0  0  0  0  0  0  0
   17.8508   -3.1094   -6.8895 O   0  0  0  0  0  0  0  0  0  0  0  0
   16.5685   -3.2990   -6.6639 O   0  0  0  0  0  0  0  0  0  0  0  0
   15.9276   -3.8328   -7.7712 C   0  0  2  0  0  0  0  0  0  0  0  0
   15.6996   -2.7873   -8.6695 O   0  0  0  0  0  0  0  0  0  0  0  0
   14.6981   -4.3862   -7.3935 O   0  0  0  0  0  0  0  0  0  0  0  0
   14.8722   -5.5149   -6.7572 O   0  0  0  0  0  0  0  0  0  0  0  0
   13.8580   -5.7625   -5.8197 C   0  0  2  0  0  0  0  0  0  0  0  0
   13.2467   -4.5205   -5.5863 O   0  0  0  0  0  0  0  0  0  0  0  0
   14.5500   -6.2570   -4.5882 C   0  0  0  0  0  0  0  0  0  0  0  0
   14.3058   -7.4024   -4.2178 O   0  0  0  0  0  0  0  0  0  0  0  0
  2  1  1  1
  2  3  1  0
  3  4  1  0
  4  5  1  1
  4  6  1  0
  6  7  1  6
  6  8  1  0
  8  9  1  6
  8 10  1  0
 10 11  1  1
 12 11  1  6
 12 13  1  0
 13 14  1  0
 14 15  1  0
 14 16  1  0
 14 17  1  0
 17 18  1  0
 18 19  1  6
 18 20  1  0
 20 21  1  1
 20 22  1  0
 22 23  1  6
 23 24  1  0
 24 25  1  0
 25 26  1  0
 26 27  1  6
 26 28  1  0
 28 29  1  0
 29 30  1  0
 30 31  1  1
 30 32  1  0
 32 33  2  0
 10  2  1  0
 22 12  1  0
M  END
>  <docking_score>  (2) 
-4.4720000000000004

$$$$

     RDKit          3D

 33 34  0  0  0  0  0  0  0  0999 V2000
   18.8131   -5.1073   -2.4289 C   0  0  0  0  0  0  0  0  0  0  0  0
   18.7314   -3.6301   -2.0902 C   0  0  1  0  0  0  0  0  0  0  0  0
   19.8913   -3.3472   -1.1426 C   0  0  0  0  0  0  0  0  0  0  0  0
   20.4313   -1.9651   -1.3849 C   0  0  2  0  0  0  0  0  0  0  0  0
   19.4655   -0.9769   -1.2192 O   0  0  0  0  0  0  0  0  0  0  0  0
   21.0933   -1.8313   -2.7460 C   0  0  2  0  0  0  0  0  0  0  0  0
   20.8368   -0.5471   -3.1964 O   0  0  0  0  0  0  0  0  0  0  0  0
   20.4085   -2.8380   -3.6627 C   0  0  1  0  0  0  0  0  0  0  0  0
   20.9561   -4.0886   -3.3394 O   0  0  0  0  0  0  0  0  0  0  0  0
   18.9362   -2.7849   -3.3424 C   0  0  1  0  0  0  0  0  0  0  0  0
   18.1036   -3.2307   -4.4287 N   0  0  0  0  0  0  0  0  0  0  0  0
   16.6963   -3.0526   -4.1915 C   0  0  1  0  0  0  0  0  0  0  0  0
   16.3233   -1.5951   -4.3686 C   0  0  0  0  0  0  0  0  0  0  0  0
   16.8516   -1.0308   -5.6714 C   0  0  0  0  0  0  0  0  0  0  0  0
   18.1902   -0.6439   -5.5634 O   0  0  0  0  0  0  0  0  0  0  0  0
   16.0427    0.0492   -6.0307 O   0  0  0  0  0  0  0  0  0  0  0  0
   16.6977   -2.0177   -6.6408 O   0  0  0  0  0  0  0  0  0  0  0  0
   15.3443   -2.2602   -6.8180 C   0  0  1  0  0  0  0  0  0  0  0  0
   15.0043   -2.7352   -8.2069 C   0  0  0  0  0  0  0  0  0  0  0  0
   14.7787   -3.2186   -5.8080 C   0  0  2  0  0  0  0  0  0  0  0  0
   13.8314   -2.6376   -4.9856 O   0  0  0  0  0  0  0  0  0  0  0  0
   15.8207   -3.9466   -5.0137 C   0  0  1  0  0  0  0  0  0  0  0  0
   16.5113   -4.8370   -5.8118 O   0  0  0  0  0  0  0  0  0  0  0  0
   15.6089   -5.6081   -6.4029 O   0  0  0  0  0  0  0  0  0  0  0  0
   16.1670   -6.5921   -7.0747 O   0  0  0  0  0  0  0  0  0  0  0  0
   17.5388   -6.4241   -7.1831 C   0  0  2  0  0  0  0  0  0  0  0  0
   17.8262   -6.1688   -8.5263 O   0  0  0  0  0  0  0  0  0  0  0  0
   18.1981   -7.5951   -6.7901 O   0  0  0  0  0  0  0  0  0  0  0  0
   19.4936   -7.4592   -6.9022 O   0  0  0  0  0  0  0  0  0  0  0  0
   20.1339   -7.3877   -5.6557 C   0  0  2  0  0  0  0  0  0  0  0  0
   21.3824   -8.0040   -5.8355 O   0  0  0  0  0  0  0  0  0  0  0  0
   19.2809   -8.1750   -4.7109 C   0  0  0  0  0  0  0  0  0  0  0  0
   19.6760   -8.2996   -3.5545 O   0  0  0  0  0  0  0  0  0  0  0  0
  2  1  1  6
  2  3  1  0
  3  4  1  0
  4  5  1  6
  4  6  1  0
  6  7  1  6
  6  8  1  0
  8  9  1  1
  8 10  1  0
 10 11  1  6
 12 11  1  6
 12 13  1  0
 13 14  1  0
 14 15  1  0
 14 16  1  0
 14 17  1  0
 17 18  1  0
 18 19  1  6
 18 20  1  0
 20 21  1  1
 20 22  1  0
 22 23  1  6
 23 24  1  0
 24 25  1  0
 25 26  1  0
 26 27  1  6
 26 28  1  0
 28 29  1  0
 29 30  1  0
 30 31  1  6
 30 32  1  0
 32 33  2  0
 10  2  1  0
 22 12  1  0
M  END
>  <docking_score>  (3) 
-4.367

$$$$
