
     RDKit          3D

 28 28  0  0  0  0  0  0  0  0999 V2000
   16.6980  -10.3875   -5.7706 C   0  0  0  0  0  0  0  0  0  0  0  0
   16.8650   -9.0088   -5.1648 C   0  0  0  0  0  0  0  0  0  0  0  0
   18.0901   -8.3096   -5.7289 C   0  0  2  0  0  0  0  0  0  0  0  0
   19.1059   -8.2109   -4.6138 C   0  0  0  0  0  0  0  0  0  0  0  0
   17.6258   -6.8932   -6.1164 C   0  0  2  0  0  0  0  0  0  0  0  0
   16.3032   -6.7519   -5.5947 N   0  0  0  0  0  0  0  0  0  0  0  0
   15.9390   -5.5365   -5.0211 C   0  0  0  0  0  0  0  0  0  0  0  0
   14.6446   -5.1756   -4.9088 O   0  0  0  0  0  0  0  0  0  0  0  0
   16.9353   -4.6345   -4.5756 N   0  0  0  0  0  0  0  0  0  0  0  0
   17.8426   -4.9623   -3.4740 C   0  0  0  0  0  0  0  0  0  0  0  0
   17.5110   -4.0607   -2.3172 C   0  0  0  0  0  0  0  0  0  0  0  0
   18.6606   -3.7595   -1.4245 C   0  0  0  0  0  3  0  0  0  0  0  0
   19.7802   -2.9794   -2.0331 C   0  0  0  0  0  0  0  0  0  0  0  0
   21.0695   -3.7603   -1.7411 C   0  0  0  0  0  0  0  0  0  0  0  0
   19.9164   -1.6692   -1.2741 C   0  0  0  0  0  0  0  0  0  0  0  0
   19.7242   -2.7708   -3.4967 C   0  0  0  0  0  0  0  0  0  0  0  0
   18.6266   -2.1229   -3.9902 O   0  0  0  0  0  0  0  0  0  0  0  0
   18.3489   -2.6756   -5.2412 C   0  0  2  0  0  0  0  0  0  0  0  0
   18.4639   -1.6509   -6.3276 C   0  0  0  0  0  2  0  0  0  0  0  0
   17.0536   -3.3694   -5.2400 C   0  0  0  0  0  0  0  0  0  0  0  0
   16.0154   -2.8283   -5.8469 C   0  0  0  0  0  0  0  0  0  0  0  0
   16.1040   -1.5240   -6.5414 C   0  0  0  0  0  0  0  0  0  0  0  0
   15.4389   -0.4072   -5.7929 C   0  0  0  0  0  0  0  0  0  0  0  0
   14.0870   -0.9069   -5.3379 C   0  0  0  0  0  3  0  0  0  0  0  0
   13.9282   -0.6507   -3.9222 N   0  0  0  0  0  0  0  0  0  0  0  0
   17.7297   -6.8578   -7.6159 C   0  0  0  0  0  0  0  0  0  0  0  0
   18.3638   -8.0223   -8.2313 C   0  0  0  0  0  0  0  0  0  0  0  0
   19.4674   -7.9264   -8.7400 O   0  0  0  0  0  0  0  0  0  0  0  0
  1  2  1  0
  2  3  1  0
  3  4  1  1
  3  5  1  0
  5  6  1  0
  6  7  1  0
  7  8  1  0
  7  9  1  0
  9 10  1  0
 10 11  1  0
 11 12  1  0
 12 13  1  0
 13 14  1  0
 13 15  1  0
 13 16  1  0
 16 17  1  0
 17 18  1  0
 18 19  1  6
 18 20  1  0
 20 21  2  3
 21 22  1  0
 22 23  1  0
 23 24  1  0
 24 25  1  0
  5 26  1  6
 26 27  1  0
 27 28  2  0
 20  9  1  0
M  RAD  3  12   2  19   3  24   2
M  END
>  <docking_score>  (1) 
-4.4880000000000004

$$$$

     RDKit          3D

 28 28  0  0  0  0  0  0  0  0999 V2000
   16.7807   -9.5633   -5.3291 C   0  0  0  0  0  0  0  0  0  0  0  0
   17.6188   -8.3061   -5.4407 C   0  0  0  0  0  0  0  0  0  0  0  0
   19.0819   -8.5984   -5.1542 C   0  0  2  0  0  0  0  0  0  0  0  0
   19.4261   -7.9311   -3.8422 C   0  0  0  0  0  0  0  0  0  0  0  0
   19.8763   -7.9237   -6.2880 C   0  0  2  0  0  0  0  0  0  0  0  0
   20.3919   -6.7078   -5.7431 N   0  0  0  0  0  0  0  0  0  0  0  0
   20.0964   -5.5098   -6.3884 C   0  0  0  0  0  0  0  0  0  0  0  0
   20.5759   -5.2413   -7.6198 O   0  0  0  0  0  0  0  0  0  0  0  0
   19.3094   -4.5284   -5.7385 N   0  0  0  0  0  0  0  0  0  0  0  0
   19.7047   -3.9400   -4.4574 C   0  0  0  0  0  0  0  0  0  0  0  0
   18.7239   -4.3999   -3.4144 C   0  0  0  0  0  0  0  0  0  0  0  0
   18.5342   -3.4486   -2.2883 C   0  0  0  0  0  3  0  0  0  0  0  0
   17.9249   -2.1294   -2.6362 C   0  0  0  0  0  0  0  0  0  0  0  0
   18.8490   -1.0510   -2.0527 C   0  0  0  0  0  0  0  0  0  0  0  0
   16.6132   -1.9953   -1.8793 C   0  0  0  0  0  0  0  0  0  0  0  0
   17.7686   -1.8304   -4.0767 C   0  0  0  0  0  0  0  0  0  0  0  0
   17.0083   -2.6961   -4.8118 O   0  0  0  0  0  0  0  0  0  0  0  0
   17.5707   -2.7583   -6.0875 C   0  0  2  0  0  0  0  0  0  0  0  0
   16.6118   -2.2714   -7.1302 C   0  0  0  0  0  2  0  0  0  0  0  0
   18.0962   -4.1008   -6.3719 C   0  0  0  0  0  0  0  0  0  0  0  0
   17.4536   -4.8978   -7.2029 C   0  0  0  0  0  0  0  0  0  0  0  0
   16.1990   -4.4870   -7.8727 C   0  0  0  0  0  0  0  0  0  0  0  0
   15.0810   -5.4706   -7.6924 C   0  0  0  0  0  0  0  0  0  0  0  0
   14.3435   -5.0936   -6.4282 C   0  0  0  0  0  3  0  0  0  0  0  0
   14.3060   -6.2303   -5.5329 N   0  0  0  0  0  0  0  0  0  0  0  0
   18.8788   -7.7546   -7.4002 C   0  0  0  0  0  0  0  0  0  0  0  0
   19.1219   -8.5637   -8.5932 C   0  0  0  0  0  0  0  0  0  0  0  0
   18.8282   -9.7467   -8.6061 O   0  0  0  0  0  0  0  0  0  0  0  0
  1  2  1  0
  2  3  1  0
  3  4  1  1
  3  5  1  0
  5  6  1  0
  6  7  1  0
  7  8  1  0
  7  9  1  0
  9 10  1  0
 10 11  1  0
 11 12  1  0
 12 13  1  0
 13 14  1  0
 13 15  1  0
 13 16  1  0
 16 17  1  0
 17 18  1  0
 18 19  1  6
 18 20  1  0
 20 21  2  3
 21 22  1  0
 22 23  1  0
 23 24  1  0
 24 25  1  0
  5 26  1  6
 26 27  1  0
 27 28  2  0
 20  9  1  0
M  RAD  3  12   2  19   3  24   2
M  END
>  <docking_score>  (2) 
-4.3319999999999999

$$$$

     RDKit          3D

 28 28  0  0  0  0  0  0  0  0999 V2000
   20.2760   -8.0233   -4.9538 C   0  0  0  0  0  0  0  0  0  0  0  0
   18.9891   -8.1977   -4.1735 C   0  0  0  0  0  0  0  0  0  0  0  0
   17.7811   -8.1377   -5.0929 C   0  0  2  0  0  0  0  0  0  0  0  0
   17.3455   -9.5608   -5.3577 C   0  0  0  0  0  0  0  0  0  0  0  0
   18.2824   -7.5097   -6.4068 C   0  0  2  0  0  0  0  0  0  0  0  0
   17.7072   -6.2033   -6.4677 N   0  0  0  0  0  0  0  0  0  0  0  0
   16.5170   -5.9663   -5.7850 C   0  0  0  0  0  0  0  0  0  0  0  0
   15.6045   -6.9434   -5.6090 O   0  0  0  0  0  0  0  0  0  0  0  0
   16.2268   -4.6711   -5.2919 N   0  0  0  0  0  0  0  0  0  0  0  0
   15.2473   -3.7958   -5.9387 C   0  0  0  0  0  0  0  0  0  0  0  0
   15.9892   -2.6317   -6.5351 C   0  0  0  0  0  0  0  0  0  0  0  0
   15.1976   -1.3765   -6.6177 C   0  0  0  0  0  3  0  0  0  0  0  0
   14.7894   -0.7685   -5.3152 C   0  0  0  0  0  0  0  0  0  0  0  0
   13.2753   -0.5278   -5.3980 C   0  0  0  0  0  0  0  0  0  0  0  0
   15.4170    0.6127   -5.2161 C   0  0  0  0  0  0  0  0  0  0  0  0
   15.0319   -1.5778   -4.1008 C   0  0  0  0  0  0  0  0  0  0  0  0
   16.3233   -1.9474   -3.8484 O   0  0  0  0  0  0  0  0  0  0  0  0
   16.2827   -3.2107   -3.2566 C   0  0  2  0  0  0  0  0  0  0  0  0
   16.8517   -3.1823   -1.8713 C   0  0  0  0  0  2  0  0  0  0  0  0
   16.9141   -4.2210   -4.1167 C   0  0  0  0  0  0  0  0  0  0  0  0
   18.1002   -4.7050   -3.8039 C   0  0  0  0  0  0  0  0  0  0  0  0
   18.8360   -4.2615   -2.5984 C   0  0  0  0  0  0  0  0  0  0  0  0
   20.3082   -4.5407   -2.6661 C   0  0  0  0  0  0  0  0  0  0  0  0
   21.0290   -3.2242   -2.4880 C   0  0  0  0  0  3  0  0  0  0  0  0
   20.8625   -2.7620   -1.1265 N   0  0  0  0  0  0  0  0  0  0  0  0
   17.8267   -8.4605   -7.4786 C   0  0  0  0  0  0  0  0  0  0  0  0
   18.7980   -8.7288   -8.5375 C   0  0  0  0  0  0  0  0  0  0  0  0
   19.8526   -9.2834   -8.2806 O   0  0  0  0  0  0  0  0  0  0  0  0
  1  2  1  0
  2  3  1  0
  3  4  1  6
  3  5  1  0
  5  6  1  0
  6  7  1  0
  7  8  1  0
  7  9  1  0
  9 10  1  0
 10 11  1  0
 11 12  1  0
 12 13  1  0
 13 14  1  0
 13 15  1  0
 13 16  1  0
 16 17  1  0
 17 18  1  0
 18 19  1  1
 18 20  1  0
 20 21  2  3
 21 22  1  0
 22 23  1  0
 23 24  1  0
 24 25  1  0
  5 26  1  6
 26 27  1  0
 27 28  2  0
 20  9  1  0
M  RAD  3  12   2  19   3  24   2
M  END
>  <docking_score>  (3) 
-4.0339999999999998

$$$$
