
     RDKit          3D

 11 10  0  0  0  0  0  0  0  0999 V2000
    7.0616    3.1255   -4.2426 O   0  0  0  0  0  0  0  0  0  0  0  0
    6.6288    1.9785   -4.9185 C   0  0  0  0  0  0  0  0  0  0  0  0
    6.1087    2.3435   -6.2725 C   0  0  0  0  0  3  0  0  0  0  0  0
    5.9618    1.1904   -7.1441 N   0  0  0  0  0  0  0  0  0  0  0  0
    6.4094    0.0187   -6.4165 C   0  0  0  0  0  0  0  0  0  0  0  0
    6.4288   -1.1441   -7.3509 C   0  0  2  0  0  0  0  0  0  0  0  0
    5.5183   -1.0393   -8.3847 O   0  0  0  0  0  0  0  0  0  0  0  0
    6.2505   -2.4667   -6.6000 C   0  0  1  0  0  0  0  0  0  0  0  0
    6.0845   -2.2272   -5.2387 O   0  0  0  0  0  0  0  0  0  0  0  0
    4.9902   -3.1104   -7.1420 C   0  0  0  0  0  3  0  0  0  0  0  0
    4.7170   -4.3144   -6.5106 O   0  0  0  0  0  0  0  0  0  0  0  0
  1  2  1  0
  2  3  1  0
  3  4  1  0
  4  5  1  0
  5  6  1  0
  6  7  1  6
  6  8  1  0
  8  9  1  1
  8 10  1  0
 10 11  1  0
M  RAD  2   3   2  10   2
M  END
>  <docking_score>  (1) 
-3.7709999999999999

$$$$

     RDKit          3D

 11 10  0  0  0  0  0  0  0  0999 V2000
   20.7750   10.8792   -1.2786 O   0  0  0  0  0  0  0  0  0  0  0  0
   20.6552    9.5912   -0.7433 C   0  0  0  0  0  0  0  0  0  0  0  0
   19.9968    8.6815   -1.7313 C   0  0  0  0  0  3  0  0  0  0  0  0
   20.9025    7.6711   -2.2504 N   0  0  0  0  0  0  0  0  0  0  0  0
   20.1076    6.5429   -2.6954 C   0  0  0  0  0  0  0  0  0  0  0  0
   19.2153    6.9954   -3.8021 C   0  0  2  0  0  0  0  0  0  0  0  0
   17.8815    6.7016   -3.5936 O   0  0  0  0  0  0  0  0  0  0  0  0
   19.6868    6.4559   -5.1554 C   0  0  1  0  0  0  0  0  0  0  0  0
   20.4016    5.2744   -4.9785 O   0  0  0  0  0  0  0  0  0  0  0  0
   18.4410    6.1587   -5.9654 C   0  0  0  0  0  3  0  0  0  0  0  0
   18.5447    4.9527   -6.6420 O   0  0  0  0  0  0  0  0  0  0  0  0
  1  2  1  0
  2  3  1  0
  3  4  1  0
  4  5  1  0
  5  6  1  0
  6  7  1  1
  6  8  1  0
  8  9  1  1
  8 10  1  0
 10 11  1  0
M  RAD  2   3   2  10   2
M  END
>  <docking_score>  (2) 
-3.2229999999999999

$$$$

     RDKit          3D

 11 10  0  0  0  0  0  0  0  0999 V2000
   14.1699   -6.2030   -5.5601 O   0  0  0  0  0  0  0  0  0  0  0  0
   15.0212   -6.7631   -4.6002 C   0  0  0  0  0  0  0  0  0  0  0  0
   16.4258   -6.3005   -4.8242 C   0  0  0  0  0  3  0  0  0  0  0  0
   17.0559   -5.8178   -3.6073 N   0  0  0  0  0  0  0  0  0  0  0  0
   16.1677   -4.8474   -2.9973 C   0  0  0  0  0  0  0  0  0  0  0  0
   16.4999   -3.4949   -3.5322 C   0  0  2  0  0  0  0  0  0  0  0  0
   17.1196   -2.6719   -2.6117 O   0  0  0  0  0  0  0  0  0  0  0  0
   15.2660   -2.8123   -4.1292 C   0  0  1  0  0  0  0  0  0  0  0  0
   15.1225   -1.5324   -3.6007 O   0  0  0  0  0  0  0  0  0  0  0  0
   15.5065   -2.7025   -5.6214 C   0  0  0  0  0  3  0  0  0  0  0  0
   16.8445   -2.8798   -5.9397 O   0  0  0  0  0  0  0  0  0  0  0  0
  1  2  1  0
  2  3  1  0
  3  4  1  0
  4  5  1  0
  5  6  1  0
  6  7  1  1
  6  8  1  0
  8  9  1  1
  8 10  1  0
 10 11  1  0
M  RAD  2   3   2  10   2
M  END
>  <docking_score>  (3) 
-2.8820000000000001

$$$$
