
     RDKit          3D

 41 40  0  0  0  0  0  0  0  0999 V2000
   17.2813   -2.3419   -7.3100 C   0  0  0  0  0  0  0  0  0  0  0  0
   16.6301   -3.2833   -6.3331 C   0  0  0  0  0  0  0  0  0  0  0  0
   17.6821   -4.2943   -5.9160 C   0  0  0  0  0  0  0  0  0  0  0  0
   16.1084   -2.5428   -5.1238 C   0  0  0  0  0  0  0  0  0  0  0  0
   14.7812   -1.9135   -5.4515 C   0  0  0  0  0  0  0  0  0  0  0  0
   13.9912   -1.5664   -4.2370 C   0  0  0  0  0  0  0  0  0  0  0  0
   13.0750   -0.4241   -4.5479 C   0  0  1  0  0  0  0  0  0  0  0  0
   13.4150    0.2397   -5.8581 C   0  0  0  0  0  0  0  0  0  0  0  0
   11.6337   -0.8429   -4.5800 C   0  0  0  0  0  3  0  0  0  0  0  0
   10.8563   -0.1516   -3.4735 C   0  0  0  0  0  0  0  0  0  0  0  0
    9.4351   -0.6781   -3.5396 C   0  0  0  0  0  0  0  0  0  0  0  0
    9.1764   -1.2974   -4.8705 C   0  0  0  0  0  3  0  0  0  0  0  0
    7.7863   -1.0262   -5.3573 C   0  0  1  0  0  0  0  0  0  0  0  0
    6.7352   -1.7529   -4.5292 C   0  0  0  0  0  0  0  0  0  0  0  0
    7.4847    0.4471   -5.4886 C   0  0  0  0  0  0  0  0  0  0  0  0
    6.8986    0.6425   -6.8668 C   0  0  1  0  0  0  0  0  0  0  0  0
    5.7394   -0.2935   -7.0405 C   0  0  0  0  0  0  0  0  0  0  0  0
    6.5486    2.0824   -7.1734 C   0  0  1  0  0  0  0  0  0  0  0  0
    6.2383    2.2778   -8.6144 C   0  0  0  0  0  0  0  0  0  0  0  0
    5.5509    2.6586   -6.2088 C   0  0  0  0  0  0  0  0  0  0  0  0
    6.0787    2.9112   -4.9543 O   0  0  0  0  0  0  0  0  0  0  0  0
    5.2811    2.5730   -3.8958 C   0  0  0  0  0  0  0  0  0  0  0  0
    5.7830    3.3254   -2.6970 C   0  0  0  0  0  3  0  0  0  0  0  0
    7.0062    4.0241   -3.0318 N   0  0  0  0  0  3  0  0  0  0  0  0
    8.1462    3.5331   -2.2906 C   0  0  0  0  0  2  0  0  0  0  0  0
    6.8458    5.3474   -2.7913 O   0  0  0  0  0  0  0  0  0  0  0  0
    7.0528    5.5901   -1.4319 C   0  0  0  0  0  3  0  0  0  0  0  0
    6.3979    4.5404   -0.5638 C   0  0  0  0  0  0  0  0  0  0  0  0
    6.6059    4.7954    0.7666 O   0  0  0  0  0  0  0  0  0  0  0  0
    5.7001    5.7218    1.2492 N   0  0  0  0  0  3  0  0  0  0  0  0
    4.3527    5.2245    1.1527 C   0  0  0  0  0  2  0  0  0  0  0  0
    6.3647    5.9473    2.4970 C   0  0  0  0  0  3  0  0  0  0  0  0
    4.5590    5.9644    3.4916 N   0  0  0  0  0  4  0  0  0  0  0  0
    3.7024    5.9649    3.9532 C   0  0  0  0  0  0  0  0  0  0  0  0
    2.7643    5.9519    4.4546 C   0  0  0  0  0  0  0  0  0  0  0  0
    2.3600    7.6137    4.5921 C   0  0  0  0  0  0  0  0  0  0  0  0
    2.8031    8.3170    5.8347 C   0  0  0  0  0  0  0  0  0  0  0  0
    2.2707    9.7530    5.7553 C   0  0  0  0  0  0  0  0  0  0  0  0
    3.2090   10.8296    5.9872 C   0  0  0  0  0  3  0  0  0  0  0  0
    4.5620   10.1540    5.4694 N   0  0  0  0  0  4  0  0  0  0  0  0
    5.7029    9.5707    5.0240 C   0  0  0  0  0  0  0  0  0  0  0  0
  1  2  1  0
  2  3  1  0
  2  4  1  0
  4  5  1  0
  5  6  1  0
  6  7  1  0
  7  8  1  6
  7  9  1  0
  9 10  1  0
 10 11  1  0
 11 12  1  0
 12 13  1  0
 13 14  1  1
 13 15  1  0
 15 16  1  0
 16 17  1  1
 16 18  1  0
 18 19  1  6
 18 20  1  0
 20 21  1  0
 21 22  1  0
 22 23  1  0
 23 24  1  0
 24 25  1  0
 24 26  1  0
 26 27  1  0
 27 28  1  0
 28 29  1  0
 29 30  1  0
 30 31  1  0
 30 32  1  0
 32 33  1  0
 33 34  3  0
 34 35  1  0
 35 36  1  0
 36 37  1  0
 37 38  1  0
 38 39  1  0
 39 40  1  0
 40 41  3  0
M  RAD  8   9   2  12   2  23   2  24   2  25   3  27   2  30   2  31   3
M  CHG  4  24   1  30   1  33   1  40   1
M  RAD  2  32   2  39   2
M  END
>  <docking_score>  (1) 
17.100000000000001

$$$$
