
     RDKit          3D

 18 18  0  0  0  0  0  0  0  0999 V2000
   17.6387   -8.7549   -5.7982 C   0  0  0  0  0  0  0  0  0  0  0  0
   16.5362   -8.0222   -5.2515 O   0  0  0  0  0  0  0  0  0  0  0  0
   16.2711   -6.7763   -5.8159 C   0  0  0  0  0  0  0  0  0  0  0  0
   16.5428   -6.5481   -7.0259 O   0  0  0  0  0  0  0  0  0  0  0  0
   15.6614   -5.6989   -4.9896 C   0  0  0  0  0  3  0  0  0  0  0  0
   16.4860   -5.5801   -3.7188 C   0  0  0  0  0  0  0  0  0  0  0  0
   17.8929   -5.0830   -4.0777 C   0  0  1  0  0  0  0  0  0  0  0  0
   17.8939   -3.5978   -3.8623 C   0  0  1  0  0  0  0  0  0  0  0  0
   18.4402   -3.3595   -2.6245 O   0  0  0  0  0  0  0  0  0  0  0  0
   19.2845   -4.3944   -2.3018 C   0  0  0  0  0  0  0  0  0  0  0  0
   18.8231   -5.6257   -3.0170 C   0  0  0  0  0  3  0  0  0  0  0  0
   18.5098   -2.8196   -4.9785 C   0  0  0  0  0  3  0  0  0  0  0  0
   17.4810   -2.0954   -5.7406 C   0  0  0  0  0  0  0  0  0  0  0  0
   16.2148   -1.9876   -5.3715 C   0  0  0  0  0  0  0  0  0  0  0  0
   15.3285   -1.2313   -6.2489 C   0  0  0  0  0  0  0  0  0  0  0  0
   14.3552   -0.5032   -5.8229 N   0  0  0  0  0  0  0  0  0  0  0  0
   14.0343   -0.3542   -4.4460 C   0  0  0  0  0  0  0  0  0  0  0  0
   13.6337    0.7531   -3.9674 O   0  0  0  0  0  0  0  0  0  0  0  0
  1  2  1  0
  2  3  1  0
  3  4  2  0
  3  5  1  0
  5  6  1  0
  7  6  1  1
  7  8  1  0
  8  9  1  0
  9 10  1  0
 10 11  1  0
  8 12  1  6
 12 13  1  0
 13 14  2  3
 14 15  1  0
 15 16  2  3
 16 17  1  0
 17 18  2  0
 11  7  1  0
M  RAD  3   5   2  11   2  12   2
M  END
>  <docking_score>  (1) 
-3.5169999999999999

$$$$

     RDKit          3D

 18 18  0  0  0  0  0  0  0  0999 V2000
   18.4387   -8.5401   -4.8802 C   0  0  0  0  0  0  0  0  0  0  0  0
   18.1150   -7.3207   -5.5580 O   0  0  0  0  0  0  0  0  0  0  0  0
   17.4044   -6.3690   -4.8296 C   0  0  0  0  0  0  0  0  0  0  0  0
   16.2617   -6.6351   -4.3678 O   0  0  0  0  0  0  0  0  0  0  0  0
   17.9928   -5.0231   -4.5897 C   0  0  0  0  0  3  0  0  0  0  0  0
   18.9739   -5.1557   -3.4370 C   0  0  0  0  0  0  0  0  0  0  0  0
   19.5323   -3.7688   -3.0906 C   0  0  1  0  0  0  0  0  0  0  0  0
   18.7643   -3.2799   -1.8977 C   0  0  1  0  0  0  0  0  0  0  0  0
   19.5209   -3.5439   -0.7817 O   0  0  0  0  0  0  0  0  0  0  0  0
   20.8467   -3.5861   -1.1404 C   0  0  0  0  0  0  0  0  0  0  0  0
   20.9379   -3.9879   -2.5794 C   0  0  0  0  0  3  0  0  0  0  0  0
   18.2911   -1.8679   -2.0132 C   0  0  0  0  0  3  0  0  0  0  0  0
   16.8912   -1.8210   -2.4624 C   0  0  0  0  0  0  0  0  0  0  0  0
   16.5133   -1.8011   -3.7304 C   0  0  0  0  0  0  0  0  0  0  0  0
   15.0800   -1.7543   -3.9965 C   0  0  0  0  0  0  0  0  0  0  0  0
   14.5537   -2.0811   -5.1256 N   0  0  0  0  0  0  0  0  0  0  0  0
   15.3124   -2.5254   -6.2428 C   0  0  0  0  0  0  0  0  0  0  0  0
   15.1734   -2.0082   -7.3955 O   0  0  0  0  0  0  0  0  0  0  0  0
  1  2  1  0
  2  3  1  0
  3  4  2  0
  3  5  1  0
  5  6  1  0
  7  6  1  1
  7  8  1  0
  8  9  1  0
  9 10  1  0
 10 11  1  0
  8 12  1  6
 12 13  1  0
 13 14  2  3
 14 15  1  0
 15 16  2  3
 16 17  1  0
 17 18  2  0
 11  7  1  0
M  RAD  3   5   2  11   2  12   2
M  END
>  <docking_score>  (2) 
-3.3919999999999999

$$$$

     RDKit          3D

 18 18  0  0  0  0  0  0  0  0999 V2000
   10.0329   14.6636    2.9523 C   0  0  0  0  0  0  0  0  0  0  0  0
    9.0741   14.6122    1.8896 O   0  0  0  0  0  0  0  0  0  0  0  0
    7.7306   14.6079    2.2584 C   0  0  0  0  0  0  0  0  0  0  0  0
    7.1706   15.6646    2.6581 O   0  0  0  0  0  0  0  0  0  0  0  0
    6.9416   13.3481    2.1826 C   0  0  0  0  0  3  0  0  0  0  0  0
    7.0116   12.6861    3.5485 C   0  0  0  0  0  0  0  0  0  0  0  0
    7.1474   11.1685    3.3647 C   0  0  1  0  0  0  0  0  0  0  0  0
    6.0932   10.5336    4.2237 C   0  0  1  0  0  0  0  0  0  0  0  0
    5.0205   10.2437    3.4159 O   0  0  0  0  0  0  0  0  0  0  0  0
    5.4651   10.0720    2.1271 C   0  0  0  0  0  0  0  0  0  0  0  0
    6.7197   10.8682    1.9464 C   0  0  0  0  0  3  0  0  0  0  0  0
    6.5847    9.3882    5.0466 C   0  0  0  0  0  3  0  0  0  0  0  0
    5.4591    8.5910    5.5578 C   0  0  0  0  0  0  0  0  0  0  0  0
    4.6852    8.9525    6.5684 C   0  0  0  0  0  0  0  0  0  0  0  0
    3.6122    8.0389    6.9443 C   0  0  0  0  0  0  0  0  0  0  0  0
    3.2857    7.7866    8.1644 N   0  0  0  0  0  0  0  0  0  0  0  0
    3.9361    8.3715    9.2851 C   0  0  0  0  0  0  0  0  0  0  0  0
    3.7314    9.5796    9.6232 O   0  0  0  0  0  0  0  0  0  0  0  0
  1  2  1  0
  2  3  1  0
  3  4  2  0
  3  5  1  0
  5  6  1  0
  7  6  1  6
  7  8  1  0
  8  9  1  0
  9 10  1  0
 10 11  1  0
  8 12  1  6
 12 13  1  0
 13 14  2  3
 14 15  1  0
 15 16  2  3
 16 17  1  0
 17 18  2  0
 11  7  1  0
M  RAD  3   5   2  11   2  12   2
M  END
>  <docking_score>  (3) 
-3.391

$$$$
