
     RDKit          3D

 18 20  0  0  0  0  0  0  0  0999 V2000
   17.5452   -5.6385   -2.4764 O   0  0  0  0  0  0  0  0  0  0  0  0
   17.5751   -4.3909   -2.5400 C   0  0  0  0  0  0  0  0  0  0  0  0
   18.6426   -3.4983   -2.1221 C   0  0  0  0  0  0  0  0  0  0  0  0
   19.9656   -3.6825   -1.8228 C   0  0  0  0  0  0  0  0  0  0  0  0
   20.7968   -2.6621   -1.4425 C   0  0  0  0  0  0  0  0  0  0  0  0
   20.2973   -1.3905   -1.3519 C   0  0  0  0  0  0  0  0  0  0  0  0
   18.9714   -1.1614   -1.6442 C   0  0  0  0  0  0  0  0  0  0  0  0
   18.1458   -2.1971   -2.0259 C   0  0  0  0  0  0  0  0  0  0  0  0
   16.7148   -2.2075   -2.3852 C   0  0  0  0  0  0  0  0  0  0  0  0
   15.8401   -1.3305   -2.1790 O   0  0  0  0  0  0  0  0  0  0  0  0
   16.5050   -3.5156   -3.0675 C   0  0  0  0  0  0  0  0  0  0  0  0
   16.5383   -3.3769   -4.5646 C   0  0  2  0  0  0  0  0  0  0  0  0
   15.2199   -3.0698   -5.1562 C   0  0  0  0  0  0  0  0  0  0  0  0
   14.5752   -2.0125   -5.6168 C   0  0  0  0  0  0  0  0  0  0  0  0
   15.2429   -0.7221   -5.5903 C   0  0  0  0  0  0  0  0  0  0  0  0
   14.5406    0.2940   -5.4427 O   0  0  0  0  0  0  0  0  0  0  0  0
   16.3194   -4.6100   -5.1704 O   0  0  0  0  0  0  0  0  0  0  0  0
   15.0091   -4.4282   -4.9849 O   0  0  0  0  0  0  0  0  0  0  0  0
  1  2  2  0
  2  3  1  0
  3  4  2  0
  4  5  1  0
  5  6  2  0
  6  7  1  0
  7  8  2  0
  8  9  1  0
  9 10  2  0
  9 11  1  0
 12 11  1  1
 12 13  1  0
 13 14  2  3
 14 15  1  0
 15 16  2  0
 12 17  1  0
 17 18  1  0
 11  2  1  0
  8  3  1  0
 18 13  1  0
M  END
>  <docking_score>  (1) 
-5.6529999999999996

$$$$

     RDKit          3D

 18 20  0  0  0  0  0  0  0  0999 V2000
   15.1621   -5.6747   -6.6028 O   0  0  0  0  0  0  0  0  0  0  0  0
   15.9097   -5.5812   -5.6060 C   0  0  0  0  0  0  0  0  0  0  0  0
   17.1176   -6.3359   -5.3186 C   0  0  0  0  0  0  0  0  0  0  0  0
   17.9475   -7.1160   -6.0779 C   0  0  0  0  0  0  0  0  0  0  0  0
   19.0562   -7.7426   -5.5730 C   0  0  0  0  0  0  0  0  0  0  0  0
   19.3642   -7.5925   -4.2474 C   0  0  0  0  0  0  0  0  0  0  0  0
   18.5554   -6.8162   -3.4479 C   0  0  0  0  0  0  0  0  0  0  0  0
   17.4427   -6.1910   -3.9686 C   0  0  0  0  0  0  0  0  0  0  0  0
   16.4367   -5.3220   -3.3286 C   0  0  0  0  0  0  0  0  0  0  0  0
   16.1983   -5.1529   -2.1075 O   0  0  0  0  0  0  0  0  0  0  0  0
   15.7323   -4.6592   -4.4623 C   0  0  0  0  0  0  0  0  0  0  0  0
   16.2707   -3.2799   -4.7252 C   0  0  2  0  0  0  0  0  0  0  0  0
   15.8898   -2.2935   -3.6935 C   0  0  0  0  0  0  0  0  0  0  0  0
   16.4394   -1.7163   -2.6397 C   0  0  0  0  0  0  0  0  0  0  0  0
   17.8051   -2.0650   -2.2864 C   0  0  0  0  0  0  0  0  0  0  0  0
   18.6666   -1.1691   -2.3379 O   0  0  0  0  0  0  0  0  0  0  0  0
   15.3730   -2.5483   -5.4962 O   0  0  0  0  0  0  0  0  0  0  0  0
   14.6872   -2.2827   -4.3810 O   0  0  0  0  0  0  0  0  0  0  0  0
  1  2  2  0
  2  3  1  0
  3  4  2  0
  4  5  1  0
  5  6  2  0
  6  7  1  0
  7  8  2  0
  8  9  1  0
  9 10  2  0
  9 11  1  0
 12 11  1  1
 12 13  1  0
 13 14  2  3
 14 15  1  0
 15 16  2  0
 12 17  1  0
 17 18  1  0
 11  2  1  0
  8  3  1  0
 18 13  1  0
M  END
>  <docking_score>  (2) 
-4.6680000000000001

$$$$

     RDKit          3D

 18 20  0  0  0  0  0  0  0  0999 V2000
   17.6516   -1.0205   -5.2013 O   0  0  0  0  0  0  0  0  0  0  0  0
   17.8642   -2.0265   -4.4913 C   0  0  0  0  0  0  0  0  0  0  0  0
   18.6513   -2.1126   -3.2730 C   0  0  0  0  0  0  0  0  0  0  0  0
   19.1394   -1.1822   -2.3956 C   0  0  0  0  0  0  0  0  0  0  0  0
   19.8749   -1.5108   -1.2875 C   0  0  0  0  0  0  0  0  0  0  0  0
   20.1444   -2.8282   -1.0297 C   0  0  0  0  0  0  0  0  0  0  0  0
   19.6721   -3.7964   -1.8873 C   0  0  0  0  0  0  0  0  0  0  0  0
   18.9330   -3.4523   -2.9987 C   0  0  0  0  0  0  0  0  0  0  0  0
   18.3258   -4.2901   -4.0505 C   0  0  0  0  0  0  0  0  0  0  0  0
   18.5531   -5.4917   -4.3354 O   0  0  0  0  0  0  0  0  0  0  0  0
   17.3516   -3.3931   -4.7341 C   0  0  0  0  0  0  0  0  0  0  0  0
   15.9511   -3.5986   -4.2265 C   0  0  2  0  0  0  0  0  0  0  0  0
   15.0587   -4.2473   -5.2090 C   0  0  0  0  0  0  0  0  0  0  0  0
   14.5693   -5.4522   -5.4420 C   0  0  0  0  0  0  0  0  0  0  0  0
   14.9367   -6.5388   -4.5499 C   0  0  0  0  0  0  0  0  0  0  0  0
   15.7129   -7.4097   -4.9818 O   0  0  0  0  0  0  0  0  0  0  0  0
   15.1631   -2.4893   -4.5162 O   0  0  0  0  0  0  0  0  0  0  0  0
   14.9984   -2.9735   -5.7502 O   0  0  0  0  0  0  0  0  0  0  0  0
  1  2  2  0
  2  3  1  0
  3  4  2  0
  4  5  1  0
  5  6  2  0
  6  7  1  0
  7  8  2  0
  8  9  1  0
  9 10  2  0
  9 11  1  0
 12 11  1  6
 12 13  1  0
 13 14  2  3
 14 15  1  0
 15 16  2  0
 12 17  1  0
 17 18  1  0
 11  2  1  0
  8  3  1  0
 18 13  1  0
M  END
>  <docking_score>  (3) 
-4.665

$$$$
