
     RDKit          3D

 77 79  0  0  0  0  0  0  0  0999 V2000
   11.2062    1.4269   11.9683 C   0  0  0  0  0  0  0  0  0  0  0  0
   10.7700    0.9794   10.6046 C   0  0  0  0  0  0  0  0  0  0  0  0
    9.8070   -0.1618   10.4622 C   0  0  0  0  0  0  0  0  0  0  0  0
   11.2967    1.6731    9.3834 C   0  0  0  0  0  0  0  0  0  0  0  0
   11.1478    1.0337    8.0348 C   0  0  0  0  0  0  0  0  0  0  0  0
   10.6180    1.8320    6.8806 C   0  0  0  0  0  0  0  0  0  0  0  0
   11.9200    2.3049    6.3051 C   0  0  0  0  0  0  0  0  0  0  0  0
   12.8572    1.6546    7.2792 C   0  0  0  0  0  0  0  0  0  0  0  0
   12.9287    2.9812    5.4248 C   0  0  0  0  0  3  0  0  0  0  0  0
   13.5456    3.7949    4.3259 C   0  0  0  0  0  0  0  0  0  0  0  0
   13.7101    4.6661    3.1159 C   0  0  0  0  0  0  0  0  0  0  0  0
   13.4061    5.5096    1.9135 C   0  0  0  0  0  0  0  0  0  0  0  0
   14.8082    5.8620    1.5135 C   0  0  0  0  0  0  0  0  0  0  0  0
   12.6635    6.2429    0.8361 C   0  0  0  0  0  0  0  0  0  0  0  0
   11.5549    6.7942   -0.0107 C   0  0  0  0  0  0  0  0  0  0  0  0
   12.3778    7.5485   -1.0126 N   0  0  0  0  0  1  0  0  0  0  0  0
   10.1888    7.1095   -0.5440 C   0  0  0  0  0  0  0  0  0  0  0  0
    8.6990    7.1580   -0.7117 C   0  0  0  0  0  0  0  0  0  0  0  0
    7.2313    6.9348   -0.4972 C   0  0  0  0  0  0  0  0  0  0  0  0
    6.7015    7.7331   -1.6514 O   0  0  0  0  0  0  0  0  0  0  0  0
    5.9293    6.4620    0.0783 C   0  0  0  0  0  0  0  0  0  0  0  0
    4.9206    5.7856    0.9586 C   0  0  0  0  0  0  0  0  0  0  0  0
    4.3038    4.9720    2.0575 C   0  0  0  0  0  0  0  0  0  0  0  0
    2.8580    5.1561    1.7027 C   0  0  0  0  0  0  0  0  0  0  0  0
    4.1393    4.1007    3.2675 S   0  0  0  0  0  0  0  0  0  0  0  0
    4.4432    3.2572    4.4699 C   0  0  0  0  0  0  0  0  0  0  0  0
    5.1858    2.5239    5.5473 C   0  0  0  0  0  0  0  0  0  0  0  0
    6.2944    1.9726    6.3941 C   0  0  0  0  0  0  0  0  0  0  0  0
    7.6605    1.6573    6.9274 S   0  0  0  0  0  0  0  0  0  0  0  0
    9.1504    1.6088    7.0951 C   0  0  0  0  0  0  0  0  0  0  0  0
    9.2209    0.7407    8.3164 C   0  0  0  0  0  0  0  0  0  0  0  0
    7.9596    0.2301    8.9475 C   0  0  0  0  0  0  0  0  0  0  0  0
    7.3373   -1.0432    8.4561 S   0  0  0  0  0  0  0  0  0  0  0  0
    8.1719   -2.2822    8.3206 C   0  0  0  0  0  0  0  0  0  0  0  0
    9.4882   -2.2253    7.6036 C   0  0  0  0  0  0  0  0  0  0  0  0
   10.7611   -2.4942    8.3501 C   0  0  0  0  0  0  0  0  0  0  0  0
    9.5316   -1.8994    6.1400 S   0  0  0  0  0  0  0  0  0  0  0  0
   10.4739   -2.6365    5.2352 C   0  0  0  0  0  0  0  0  0  0  0  0
   11.9547   -2.5357    5.4519 C   0  0  0  0  0  0  0  0  0  0  0  0
   12.5689   -1.2221    5.8355 C   0  0  0  0  0  0  0  0  0  0  0  0
   12.8213   -3.7486    5.2851 S   0  0  0  0  0  0  0  0  0  0  0  0
   12.8666   -4.4624    3.9666 C   0  0  0  0  0  0  0  0  0  0  0  0
   12.1154   -3.9131    2.7901 C   0  0  0  0  0  0  0  0  0  0  0  0
   12.7044   -2.7977    1.9785 C   0  0  0  0  0  0  0  0  0  0  0  0
   13.4952   -3.1065    0.7418 C   0  0  0  0  0  0  0  0  0  0  0  0
   14.9524   -3.4459    0.8486 C   0  0  0  0  0  0  0  0  0  0  0  0
   15.9884   -2.3887    0.6060 C   0  0  0  0  0  0  0  0  0  0  0  0
   15.3735   -4.8426    1.1979 C   0  0  0  0  0  0  0  0  0  0  0  0
   15.1090   -5.9671    0.2410 C   0  0  0  0  0  0  0  0  0  0  0  0
   15.1716   -5.7239   -1.2378 C   0  0  0  0  0  0  0  0  0  0  0  0
   16.1356   -4.7173   -1.7922 C   0  0  0  0  0  0  0  0  0  0  0  0
   17.4471   -4.4771   -1.1049 C   0  0  0  0  0  0  0  0  0  0  0  0
   18.7032   -4.3387   -1.9131 C   0  0  0  0  0  0  0  0  0  0  0  0
   18.7508   -3.3822   -3.0674 C   0  0  0  0  0  0  0  0  0  0  0  0
   17.7403   -2.2783   -3.1690 C   0  0  0  0  0  0  0  0  0  0  0  0
   17.7771   -1.3326   -4.3326 C   0  0  0  0  0  3  0  0  0  0  0  0
   18.7874   -1.5256   -5.4244 S   0  0  0  0  0  0  0  0  0  0  0  0
   16.8034   -0.1937   -4.4046 C   0  0  0  0  0  0  0  0  0  0  0  0
   15.4697   -0.3877   -5.0629 C   0  0  0  0  0  0  0  0  0  0  0  0
   14.4289    0.6893   -4.9805 S   0  0  0  0  0  0  0  0  0  0  0  0
   15.1766   -1.6587   -5.8036 C   0  0  0  0  0  0  0  0  0  0  0  0
   16.2650   -2.6674   -6.0222 C   0  0  0  0  0  0  0  0  0  0  0  0
   17.2972   -1.9167   -6.8102 C   0  0  0  0  0  0  0  0  0  0  0  0
   17.7065   -0.6281   -7.4596 C   0  0  0  0  0  0  0  0  0  0  0  0
   18.6140   -1.8208   -7.5223 S   0  0  0  0  0  0  0  0  0  0  0  0
   19.9135   -2.4016   -7.9954 C   0  0  0  0  0  3  0  0  0  0  0  0
   20.5713   -1.2657   -8.7211 C   0  0  0  0  0  0  0  0  0  0  0  0
   20.8981   -3.5262   -8.1210 S   0  0  0  0  0  0  0  0  0  0  0  0
   21.3424   -4.9369   -7.8706 C   0  0  0  0  0  0  0  0  0  0  0  0
   21.1444   -6.3104   -7.3013 C   0  0  0  0  0  0  0  0  0  0  0  0
   20.3495   -7.3323   -6.5436 C   0  0  0  0  0  0  0  0  0  0  0  0
   21.2161   -8.5562   -6.5746 S   0  0  0  0  0  0  0  0  0  0  0  0
   19.1399   -7.7683   -5.7712 C   0  0  0  0  0  0  0  0  0  0  0  0
   17.7926   -7.5186   -5.1608 C   0  0  0  0  0  0  0  0  0  0  0  0
   16.6163   -6.6404   -4.8524 C   0  0  0  0  0  0  0  0  0  0  0  0
   15.8804   -5.3348   -4.9167 S   0  0  0  0  0  0  0  0  0  0  0  0
   15.7537   -3.9010   -5.3389 S   0  0  0  0  0  0  0  0  0  0  0  0
  1  2  1  0
  2  3  1  0
  2  4  1  0
  4  5  1  0
  5  6  1  0
  6  7  1  0
  7  8  1  0
  7  9  1  0
  9 10  1  0
 10 11  1  0
 11 12  1  0
 12 13  1  0
 12 14  1  0
 14 15  1  0
 15 16  1  0
 15 17  1  0
 17 18  1  0
 18 19  1  0
 19 20  1  0
 19 21  1  0
 21 22  1  0
 22 23  1  0
 23 24  1  0
 23 25  1  0
 25 26  1  0
 26 27  1  0
 27 28  1  0
 28 29  1  0
 29 30  1  0
 30 31  2  3
 31 32  1  0
 32 33  1  0
 33 34  1  0
 34 35  1  0
 35 36  1  0
 35 37  1  0
 37 38  1  0
 38 39  1  0
 39 40  1  0
 39 41  1  0
 41 42  1  0
 42 43  1  0
 43 44  1  0
 44 45  1  0
 45 46  1  0
 46 47  1  0
 46 48  1  0
 48 49  1  0
 49 50  1  0
 50 51  1  0
 51 52  1  0
 52 53  1  0
 53 54  1  0
 54 55  1  0
 55 56  1  0
 56 57  1  0
 56 58  1  0
 58 59  1  0
 59 60  1  0
 59 61  1  0
 61 62  1  0
 62 63  1  0
 63 64  1  0
 63 65  1  0
 65 66  1  0
 66 67  1  0
 66 68  1  0
 68 69  1  0
 69 70  1  0
 70 71  1  0
 71 72  1  0
 71 73  1  0
 73 74  3  0
 74 75  1  0
 75 76  1  0
 76 77  1  0
 30  6  1  0
 62 77  2  3
 65 64  1  0
M  CHG  1  16   1
M  RAD  4   9   2  16   2  56   2  66   2
M  END
>  <docking_score>  (1) 
151.953

$$$$

     RDKit          3D

 77 79  0  0  0  0  0  0  0  0999 V2000
   16.2050    3.1449    9.4401 C   0  0  0  0  0  0  0  0  0  0  0  0
   15.5267    2.5119   10.6188 C   0  0  0  0  0  0  0  0  0  0  0  0
   16.3072    2.2209   11.8662 C   0  0  0  0  0  0  0  0  0  0  0  0
   14.0678    2.1699   10.5500 C   0  0  0  0  0  0  0  0  0  0  0  0
   13.3732    2.1108    9.2219 C   0  0  0  0  0  0  0  0  0  0  0  0
   12.1280    2.9145    8.9903 C   0  0  0  0  0  0  0  0  0  0  0  0
   11.8488    3.3274   10.4051 C   0  0  0  0  0  0  0  0  0  0  0  0
   13.0065    2.6528   11.0794 C   0  0  0  0  0  0  0  0  0  0  0  0
   11.2072    3.9514   11.6088 C   0  0  0  0  0  3  0  0  0  0  0  0
   10.2662    4.7253   12.4839 C   0  0  0  0  0  0  0  0  0  0  0  0
    9.1180    5.5734   12.9445 C   0  0  0  0  0  0  0  0  0  0  0  0
    7.8748    6.4127   12.9455 C   0  0  0  0  0  0  0  0  0  0  0  0
    7.7892    6.7035   14.4145 C   0  0  0  0  0  0  0  0  0  0  0  0
    6.6584    7.1611   12.4869 C   0  0  0  0  0  0  0  0  0  0  0  0
    5.5878    7.7452   11.6136 C   0  0  0  0  0  0  0  0  0  0  0  0
    4.7867    8.4529   12.6660 N   0  0  0  0  0  1  0  0  0  0  0  0
    4.7679    8.1080   10.4110 C   0  0  0  0  0  0  0  0  0  0  0  0
    4.2789    8.2138    8.9969 C   0  0  0  0  0  0  0  0  0  0  0  0
    4.1687    8.0524    7.5098 C   0  0  0  0  0  0  0  0  0  0  0  0
    2.9235    8.8561    7.2782 O   0  0  0  0  0  0  0  0  0  0  0  0
    4.4479    7.6395    6.0951 C   0  0  0  0  0  0  0  0  0  0  0  0
    5.0895    7.0156    4.8913 C   0  0  0  0  0  0  0  0  0  0  0  0
    6.0305    6.2416    4.0162 C   0  0  0  0  0  0  0  0  0  0  0  0
    5.3678    6.4788    2.6916 C   0  0  0  0  0  0  0  0  0  0  0  0
    7.1787    5.3935    3.5556 S   0  0  0  0  0  0  0  0  0  0  0  0
    8.4219    4.5542    3.5546 C   0  0  0  0  0  0  0  0  0  0  0  0
    9.6383    3.8058    4.0132 C   0  0  0  0  0  0  0  0  0  0  0  0
   10.7088    3.2217    4.8865 C   0  0  0  0  0  0  0  0  0  0  0  0
   11.5288    2.8589    6.0891 S   0  0  0  0  0  0  0  0  0  0  0  0
   12.0178    2.7531    7.5032 C   0  0  0  0  0  0  0  0  0  0  0  0
   13.2285    1.8988    7.2694 C   0  0  0  0  0  0  0  0  0  0  0  0
   13.5710    1.4473    5.8806 C   0  0  0  0  0  0  0  0  0  0  0  0
   14.0655    0.0506    5.6466 S   0  0  0  0  0  0  0  0  0  0  0  0
   15.1217   -0.2078    4.6134 C   0  0  0  0  0  0  0  0  0  0  0  0
   14.8118   -0.0124    3.1588 C   0  0  0  0  0  0  0  0  0  0  0  0
   15.0674    1.3153    2.5093 C   0  0  0  0  0  0  0  0  0  0  0  0
   14.2463   -1.1447    2.3538 S   0  0  0  0  0  0  0  0  0  0  0  0
   15.1156   -2.3102    1.9849 C   0  0  0  0  0  0  0  0  0  0  0  0
   15.8286   -2.3260    0.6654 C   0  0  0  0  0  0  0  0  0  0  0  0
   16.1477   -3.6324    0.0009 C   0  0  0  0  0  0  0  0  0  0  0  0
   16.2227   -1.0355    0.0103 S   0  0  0  0  0  0  0  0  0  0  0  0
   15.1774   -0.1669   -0.6245 C   0  0  0  0  0  0  0  0  0  0  0  0
   14.3008   -0.7192   -1.7093 C   0  0  0  0  0  0  0  0  0  0  0  0
   14.7757   -0.7153   -3.1321 C   0  0  0  0  0  0  0  0  0  0  0  0
   15.7922   -1.7206   -3.5862 C   0  0  0  0  0  0  0  0  0  0  0  0
   15.3752   -2.8670   -4.4591 C   0  0  0  0  0  0  0  0  0  0  0  0
   14.0522   -3.5375   -4.2354 C   0  0  0  0  0  0  0  0  0  0  0  0
   16.2814   -3.3430   -5.5556 C   0  0  0  0  0  0  0  0  0  0  0  0
   16.9777   -2.3492   -6.4374 C   0  0  0  0  0  0  0  0  0  0  0  0
   16.2655   -1.1019   -6.8698 C   0  0  0  0  0  0  0  0  0  0  0  0
   14.7713   -1.0988   -7.0019 C   0  0  0  0  0  0  0  0  0  0  0  0
   13.9199   -0.5912   -5.8761 C   0  0  0  0  0  0  0  0  0  0  0  0
   12.4317   -0.5032   -6.0418 C   0  0  0  0  0  0  0  0  0  0  0  0
   11.5338   -0.6602   -4.8507 C   0  0  0  0  0  0  0  0  0  0  0  0
   10.0836   -0.2900   -4.9504 C   0  0  0  0  0  0  0  0  0  0  0  0
    9.5082    0.7435   -4.0282 C   0  0  0  0  0  3  0  0  0  0  0  0
    9.4443    0.4800   -2.5529 S   0  0  0  0  0  0  0  0  0  0  0  0
    8.9966    2.0407   -4.5812 C   0  0  0  0  0  0  0  0  0  0  0  0
    8.0831    2.8989   -3.7573 C   0  0  0  0  0  0  0  0  0  0  0  0
    6.8779    3.5318   -4.3874 S   0  0  0  0  0  0  0  0  0  0  0  0
    8.3746    3.1243   -2.3032 C   0  0  0  0  0  0  0  0  0  0  0  0
    8.3244    4.5113   -1.7345 C   0  0  0  0  0  0  0  0  0  0  0  0
    7.0904    5.1057   -2.3461 C   0  0  0  0  0  0  0  0  0  0  0  0
    5.9127    4.9228   -3.2567 C   0  0  0  0  0  0  0  0  0  0  0  0
    6.1152    6.2278   -2.5454 S   0  0  0  0  0  0  0  0  0  0  0  0
    5.6219    7.6205   -2.2867 C   0  0  0  0  0  3  0  0  0  0  0  0
    4.3787    7.7217   -3.1198 C   0  0  0  0  0  0  0  0  0  0  0  0
    5.7238    8.9649   -1.6292 S   0  0  0  0  0  0  0  0  0  0  0  0
    6.3973    9.9530   -0.7236 C   0  0  0  0  0  0  0  0  0  0  0  0
    7.4884   10.3582    0.2227 C   0  0  0  0  0  0  0  0  0  0  0  0
    8.7469   10.0880    0.9929 C   0  0  0  0  0  0  0  0  0  0  0  0
    8.9992   11.3701    1.7295 S   0  0  0  0  0  0  0  0  0  0  0  0
    9.8845    9.2041    1.4105 C   0  0  0  0  0  0  0  0  0  0  0  0
   10.6408    7.9090    1.3799 C   0  0  0  0  0  0  0  0  0  0  0  0
   10.8424    6.4995    0.9081 C   0  0  0  0  0  0  0  0  0  0  0  0
   10.4430    5.2984    0.1031 S   0  0  0  0  0  0  0  0  0  0  0  0
    9.5343    4.5809   -0.8505 S   0  0  0  0  0  0  0  0  0  0  0  0
  1  2  1  0
  2  3  1  0
  2  4  1  0
  4  5  1  0
  5  6  1  0
  6  7  1  0
  7  8  1  0
  7  9  1  0
  9 10  1  0
 10 11  1  0
 11 12  1  0
 12 13  1  0
 12 14  1  0
 14 15  1  0
 15 16  1  0
 15 17  1  0
 17 18  1  0
 18 19  1  0
 19 20  1  0
 19 21  1  0
 21 22  1  0
 22 23  1  0
 23 24  1  0
 23 25  1  0
 25 26  1  0
 26 27  1  0
 27 28  1  0
 28 29  1  0
 29 30  1  0
 30 31  2  3
 31 32  1  0
 32 33  1  0
 33 34  1  0
 34 35  1  0
 35 36  1  0
 35 37  1  0
 37 38  1  0
 38 39  1  0
 39 40  1  0
 39 41  1  0
 41 42  1  0
 42 43  1  0
 43 44  1  0
 44 45  1  0
 45 46  1  0
 46 47  1  0
 46 48  1  0
 48 49  1  0
 49 50  1  0
 50 51  1  0
 51 52  1  0
 52 53  1  0
 53 54  1  0
 54 55  1  0
 55 56  1  0
 56 57  1  0
 56 58  1  0
 58 59  1  0
 59 60  1  0
 59 61  1  0
 61 62  1  0
 62 63  1  0
 63 64  1  0
 63 65  1  0
 65 66  1  0
 66 67  1  0
 66 68  1  0
 68 69  1  0
 69 70  1  0
 70 71  1  0
 71 72  1  0
 71 73  1  0
 73 74  3  0
 74 75  1  0
 75 76  1  0
 76 77  1  0
 30  6  1  0
 62 77  2  3
 65 64  1  0
M  CHG  1  16   1
M  RAD  4   9   2  16   2  56   2  66   2
M  END
>  <docking_score>  (2) 
154.17400000000001

$$$$
