
     RDKit          3D

 30 30  0  0  0  0  0  0  0  0999 V2000
    6.9704   15.4002   11.9836 C   0  0  0  0  0  0  0  0  0  0  0  0
    7.2228   14.2796   10.9981 C   0  0  0  0  0  0  0  0  0  0  0  0
    6.0700   13.2984   11.0178 C   0  0  0  0  0  0  0  0  0  0  0  0
    7.2669   14.8969    9.6053 C   0  0  0  0  0  0  0  0  0  0  0  0
    5.9828   14.5525    8.8820 C   0  0  0  0  0  0  0  0  0  0  0  0
    5.6021   15.7123    8.0208 C   0  0  0  0  0  0  0  0  0  0  0  0
    5.2228   15.2311    6.6106 C   0  0  1  0  0  0  0  0  0  0  0  0
    3.8143   15.6389    6.3073 C   0  0  0  0  0  0  0  0  0  0  0  0
    6.1754   15.9202    5.6601 C   0  0  0  0  0  3  0  0  0  0  0  0
    6.7149   14.8918    4.6962 C   0  0  0  0  0  0  0  0  0  0  0  0
    7.7018   15.4559    3.7075 C   0  0  0  0  0  0  0  0  0  0  0  0
    8.1429   14.2947    2.8036 C   0  0  0  0  0  0  0  0  0  0  0  0
    9.1272   13.4863    3.6747 C   0  0  0  0  0  0  0  0  0  0  0  0
    8.8418   14.8270    1.5953 C   0  0  0  0  0  0  0  0  0  0  0  0
    7.0372   13.5078    2.5405 O   0  0  0  0  0  0  0  0  0  0  0  0
    7.4571   12.2812    2.0533 C   0  0  0  0  0  0  0  0  0  0  0  0
    6.3384   11.2858    2.2404 C   0  0  0  0  0  0  0  0  0  0  0  0
    5.9735   11.3122    3.7253 C   0  0  0  0  0  0  0  0  0  0  0  0
    4.8269   10.3868    3.9162 C   0  0  1  0  0  0  0  0  0  0  0  0
    4.9047    9.0781    3.2228 C   0  0  0  0  0  0  0  0  0  0  0  0
    4.1699   10.4074    5.2435 C   0  0  0  0  0  0  0  0  0  0  0  0
    4.7334    9.4544    6.2614 C   0  0  0  0  0  0  0  0  0  0  0  0
    4.7249    9.9785    7.6562 C   0  0  1  0  0  0  0  0  0  0  0  0
    3.8165   11.1277    7.8734 C   0  0  0  0  0  0  0  0  0  0  0  0
    4.5532    8.9535    8.5595 O   0  0  0  0  0  0  0  0  0  0  0  0
    4.4993    9.4010    9.8380 N   0  0  0  0  0  0  0  0  0  0  0  0
    3.4011   10.2759   10.0916 C   0  0  0  0  0  0  0  0  0  0  0  0
    3.1843   11.2761    9.0266 C   0  0  0  0  0  0  0  0  0  0  0  0
    2.2586   12.4270    9.2800 C   0  0  0  0  0  0  0  0  0  0  0  0
    2.9247   13.6167    9.0050 O   0  0  0  0  0  1  0  0  0  0  0  0
  1  2  1  0
  2  3  1  0
  2  4  1  0
  4  5  1  0
  5  6  1  0
  6  7  1  0
  7  8  1  6
  7  9  1  0
  9 10  1  0
 10 11  1  0
 11 12  1  0
 12 13  1  0
 12 14  1  0
 12 15  1  0
 15 16  1  0
 16 17  1  0
 17 18  1  0
 18 19  1  0
 19 20  1  1
 19 21  1  0
 21 22  1  0
 23 22  1  6
 23 24  1  0
 23 25  1  0
 25 26  1  0
 26 27  1  0
 27 28  1  0
 28 29  1  0
 29 30  1  0
 24 28  2  0
M  CHG  1  30  -1
M  RAD  1   9   2
M  END
>  <docking_score>  (1) 
-2.5179999999999998

$$$$

     RDKit          3D

 30 30  0  0  0  0  0  0  0  0999 V2000
    5.7478   13.0893    2.8543 C   0  0  0  0  0  0  0  0  0  0  0  0
    6.3785   11.8859    2.1875 C   0  0  0  0  0  0  0  0  0  0  0  0
    7.6180   11.4599    2.9453 C   0  0  0  0  0  0  0  0  0  0  0  0
    5.3791   10.7386    2.2748 C   0  0  0  0  0  0  0  0  0  0  0  0
    4.4918   10.9598    3.4808 C   0  0  0  0  0  0  0  0  0  0  0  0
    4.2772    9.6439    4.1549 C   0  0  0  0  0  0  0  0  0  0  0  0
    4.9491    9.6343    5.5379 C   0  0  1  0  0  0  0  0  0  0  0  0
    6.3018    9.0011    5.4299 C   0  0  0  0  0  0  0  0  0  0  0  0
    5.0888   11.0828    5.9482 C   0  0  0  0  0  3  0  0  0  0  0  0
    4.0876   11.3679    7.0408 C   0  0  0  0  0  0  0  0  0  0  0  0
    3.3929   12.6957    6.8861 C   0  0  0  0  0  0  0  0  0  0  0  0
    3.7694   13.5430    8.1111 C   0  0  0  0  0  0  0  0  0  0  0  0
    2.8469   14.7766    8.0194 C   0  0  0  0  0  0  0  0  0  0  0  0
    5.2005   13.9620    8.0201 C   0  0  0  0  0  0  0  0  0  0  0  0
    3.4402   12.8289    9.2481 O   0  0  0  0  0  0  0  0  0  0  0  0
    3.7166   13.5994   10.3653 C   0  0  0  0  0  0  0  0  0  0  0  0
    4.6085   12.8023   11.2853 C   0  0  0  0  0  0  0  0  0  0  0  0
    6.0466   13.2083   10.9600 C   0  0  0  0  0  0  0  0  0  0  0  0
    6.5775   13.9411   12.1383 C   0  0  1  0  0  0  0  0  0  0  0  0
    5.6622   14.9113   12.7870 C   0  0  0  0  0  0  0  0  0  0  0  0
    7.5054   13.1973   13.0211 C   0  0  0  0  0  0  0  0  0  0  0  0
    8.6277   14.0057   13.6114 C   0  0  0  0  0  0  0  0  0  0  0  0
    9.9834   13.4423   13.3564 C   0  0  1  0  0  0  0  0  0  0  0  0
   10.7469   14.1388   12.2958 C   0  0  0  0  0  0  0  0  0  0  0  0
   10.6774   13.2929   14.5363 O   0  0  0  0  0  0  0  0  0  0  0  0
   11.9321   12.8204   14.3364 N   0  0  0  0  0  0  0  0  0  0  0  0
   12.7530   13.6896   13.5577 C   0  0  0  0  0  0  0  0  0  0  0  0
   12.0618   14.2604   12.3838 C   0  0  0  0  0  0  0  0  0  0  0  0
   12.8650   14.9586   11.3287 C   0  0  0  0  0  0  0  0  0  0  0  0
   13.5802   15.9983   11.9139 O   0  0  0  0  0  1  0  0  0  0  0  0
  1  2  1  0
  2  3  1  0
  2  4  1  0
  4  5  1  0
  5  6  1  0
  6  7  1  0
  7  8  1  6
  7  9  1  0
  9 10  1  0
 10 11  1  0
 11 12  1  0
 12 13  1  0
 12 14  1  0
 12 15  1  0
 15 16  1  0
 16 17  1  0
 17 18  1  0
 18 19  1  0
 19 20  1  1
 19 21  1  0
 21 22  1  0
 23 22  1  1
 23 24  1  0
 23 25  1  0
 25 26  1  0
 26 27  1  0
 27 28  1  0
 28 29  1  0
 29 30  1  0
 24 28  2  0
M  CHG  1  30  -1
M  RAD  1   9   2
M  END
>  <docking_score>  (2) 
-2.0659999999999998

$$$$

     RDKit          3D

 30 30  0  0  0  0  0  0  0  0999 V2000
   10.1004   15.6577    4.0113 C   0  0  0  0  0  0  0  0  0  0  0  0
    8.8447   14.9927    4.5322 C   0  0  0  0  0  0  0  0  0  0  0  0
    8.4072   15.6457    5.8262 C   0  0  0  0  0  0  0  0  0  0  0  0
    7.7412   15.2340    3.5090 C   0  0  0  0  0  0  0  0  0  0  0  0
    7.2675   13.8963    2.9829 C   0  0  0  0  0  0  0  0  0  0  0  0
    6.2200   13.3705    3.9093 C   0  0  0  0  0  0  0  0  0  0  0  0
    4.8170   13.7124    3.3812 C   0  0  1  0  0  0  0  0  0  0  0  0
    4.5728   12.9736    2.1017 C   0  0  0  0  0  0  0  0  0  0  0  0
    3.8434   13.2462    4.4398 C   0  0  0  0  0  3  0  0  0  0  0  0
    4.3328   11.9297    4.9917 C   0  0  0  0  0  0  0  0  0  0  0  0
    3.9119   10.7404    4.1683 C   0  0  0  0  0  0  0  0  0  0  0  0
    4.8990    9.6062    4.4834 C   0  0  0  0  0  0  0  0  0  0  0  0
    5.4321    9.9450    5.8913 C   0  0  0  0  0  0  0  0  0  0  0  0
    6.0177    9.6148    3.4931 C   0  0  0  0  0  0  0  0  0  0  0  0
    4.1889    8.4222    4.5531 O   0  0  0  0  0  0  0  0  0  0  0  0
    3.0146    8.6365    5.2555 C   0  0  0  0  0  0  0  0  0  0  0  0
    3.3142    8.5247    6.7303 C   0  0  0  0  0  0  0  0  0  0  0  0
    2.2575    9.3591    7.4556 C   0  0  0  0  0  0  0  0  0  0  0  0
    2.5818    9.3220    8.9049 C   0  0  1  0  0  0  0  0  0  0  0  0
    2.5662    7.9900    9.5570 C   0  0  0  0  0  0  0  0  0  0  0  0
    3.5895   10.2951    9.3859 C   0  0  0  0  0  0  0  0  0  0  0  0
    4.5908    9.7588   10.3715 C   0  0  0  0  0  0  0  0  0  0  0  0
    5.1623   10.7911   11.2815 C   0  0  1  0  0  0  0  0  0  0  0  0
    4.2229   11.8775   11.6423 C   0  0  0  0  0  0  0  0  0  0  0  0
    5.7733   10.1997   12.3645 O   0  0  0  0  0  0  0  0  0  0  0  0
    6.2688   11.1131   13.2351 N   0  0  0  0  0  0  0  0  0  0  0  0
    5.2700   11.9515   13.8141 C   0  0  0  0  0  0  0  0  0  0  0  0
    4.2676   12.4336   12.8425 C   0  0  0  0  0  0  0  0  0  0  0  0
    3.3324   13.5350   13.2403 C   0  0  0  0  0  0  0  0  0  0  0  0
    2.7976   14.1148   12.0947 O   0  0  0  0  0  1  0  0  0  0  0  0
  1  2  1  0
  2  3  1  0
  2  4  1  0
  4  5  1  0
  5  6  1  0
  6  7  1  0
  7  8  1  6
  7  9  1  0
  9 10  1  0
 10 11  1  0
 11 12  1  0
 12 13  1  0
 12 14  1  0
 12 15  1  0
 15 16  1  0
 16 17  1  0
 17 18  1  0
 18 19  1  0
 19 20  1  6
 19 21  1  0
 21 22  1  0
 23 22  1  1
 23 24  1  0
 23 25  1  0
 25 26  1  0
 26 27  1  0
 27 28  1  0
 28 29  1  0
 29 30  1  0
 24 28  2  0
M  CHG  1  30  -1
M  RAD  1   9   2
M  END
>  <docking_score>  (3) 
-0.98099999999999998

$$$$
