
     RDKit          3D

 29 29  0  0  0  0  0  0  0  0999 V2000
   16.0169   -1.7672   -2.0420 C   0  0  0  0  0  0  0  0  0  0  0  0
   16.6867   -2.9480   -2.6869 C   0  0  0  0  0  0  0  0  0  0  0  0
   16.4994   -4.1938   -1.8590 C   0  0  0  0  0  0  0  0  0  0  0  0
   16.0645   -3.2027   -4.0535 C   0  0  0  0  0  0  0  0  0  0  0  0
   15.2814   -1.9678   -4.4565 C   0  0  0  0  0  0  0  0  0  0  0  0
   16.0646   -1.2729   -5.5501 C   0  0  0  0  0  0  0  0  0  0  0  0
   17.1231   -2.2279   -6.1132 C   0  0  1  0  0  0  0  0  0  0  0  0
   16.5147   -2.9519   -7.2953 C   0  0  0  0  0  0  0  0  0  0  0  0
   18.3048   -1.3821   -6.5403 C   0  0  0  0  0  3  0  0  0  0  0  0
   18.6524   -0.4327   -5.4289 C   0  0  0  0  0  0  0  0  0  0  0  0
   18.9643   -1.2017   -4.1569 C   0  0  0  0  0  0  0  0  0  0  0  0
   20.2705   -0.6558   -3.6257 C   0  0  0  0  0  3  0  0  0  0  0  0
   21.3809   -1.6809   -3.8688 C   0  0  0  0  0  3  0  0  0  0  0  0
   20.9069   -2.9902   -3.2384 C   0  0  0  0  0  0  0  0  0  0  0  0
   20.7407   -3.9765   -4.3815 C   0  0  0  0  0  0  0  0  0  0  0  0
   19.4853   -4.7947   -4.2573 C   0  0  0  0  0  3  0  0  0  0  0  0
   19.5789   -6.0946   -5.0667 C   0  0  2  0  0  0  0  0  0  0  0  0
   19.5265   -5.6946   -6.5177 C   0  0  1  0  0  0  0  0  0  0  0  0
   19.9735   -4.2913   -6.7615 C   0  0  0  0  0  2  0  0  0  0  0  0
   20.1489   -6.6786   -7.4435 C   0  0  1  0  0  0  0  0  0  0  0  0
   20.6155   -7.9390   -6.7994 C   0  0  0  0  0  0  0  0  0  0  0  0
   19.1245   -6.9768   -8.5456 C   0  0  0  0  0  0  0  0  0  0  0  0
   17.7294   -6.5371   -8.1040 C   0  0  0  0  0  0  0  0  0  0  0  0
   17.2830   -7.3893   -6.9487 C   0  0  0  0  0  3  0  0  0  0  0  0
   17.2033   -6.6234   -5.6520 C   0  0  1  0  0  0  0  0  0  0  0  0
   15.9032   -6.9063   -4.9745 C   0  0  0  0  0  0  0  0  0  0  0  0
   18.3765   -6.9229   -4.7429 C   0  0  1  0  0  0  0  0  0  0  0  0
   18.6344   -8.4008   -4.7455 C   0  0  0  0  0  0  0  0  0  0  0  0
   17.5374   -9.1518   -5.0882 O   0  0  0  0  0  0  0  0  0  0  0  0
  1  2  1  0
  2  3  1  0
  2  4  1  0
  4  5  1  0
  5  6  1  0
  6  7  1  0
  7  8  1  6
  7  9  1  0
  9 10  1  0
 10 11  1  0
 11 12  1  0
 12 13  1  0
 13 14  1  0
 14 15  1  0
 15 16  1  0
 17 16  1  1
 17 18  1  0
 18 19  1  1
 18 20  1  0
 20 21  1  1
 20 22  1  0
 22 23  1  0
 23 24  1  0
 24 25  1  0
 25 26  1  1
 25 27  1  0
 27 28  1  6
 28 29  1  0
 27 17  1  0
M  RAD  6   9   2  12   2  13   2  16   2  19   3  24   2
M  END
>  <docking_score>  (1) 
-3.7000000000000002

$$$$

     RDKit          3D

 29 29  0  0  0  0  0  0  0  0999 V2000
    5.4149   11.1192   11.1670 C   0  0  0  0  0  0  0  0  0  0  0  0
    6.0541   12.3764   11.6864 C   0  0  0  0  0  0  0  0  0  0  0  0
    7.4902   12.1317   12.0740 C   0  0  0  0  0  0  0  0  0  0  0  0
    6.0435   13.4406   10.5971 C   0  0  0  0  0  0  0  0  0  0  0  0
    4.8898   14.3871   10.8687 C   0  0  0  0  0  0  0  0  0  0  0  0
    4.8761   15.4140    9.7564 C   0  0  0  0  0  0  0  0  0  0  0  0
    5.4872   14.8086    8.4876 C   0  0  1  0  0  0  0  0  0  0  0  0
    4.3526   14.4300    7.5597 C   0  0  0  0  0  0  0  0  0  0  0  0
    6.3690   15.8719    7.8662 C   0  0  0  0  0  3  0  0  0  0  0  0
    7.5152   15.2041    7.1608 C   0  0  0  0  0  0  0  0  0  0  0  0
    7.7347   15.8355    5.7971 C   0  0  0  0  0  0  0  0  0  0  0  0
    8.4335   14.8008    4.9440 C   0  0  0  0  0  3  0  0  0  0  0  0
    7.6220   14.5696    3.6670 C   0  0  0  0  0  3  0  0  0  0  0  0
    6.1535   14.5277    4.0888 C   0  0  0  0  0  0  0  0  0  0  0  0
    5.5200   13.3878    3.3102 C   0  0  0  0  0  0  0  0  0  0  0  0
    6.4331   12.1999    3.1843 C   0  0  0  0  0  3  0  0  0  0  0  0
    5.8727   10.9788    3.9248 C   0  0  2  0  0  0  0  0  0  0  0  0
    5.2509   10.0957    2.8753 C   0  0  1  0  0  0  0  0  0  0  0  0
    5.8214   10.3049    1.5117 C   0  0  0  0  0  2  0  0  0  0  0  0
    5.1614    8.6618    3.2610 C   0  0  1  0  0  0  0  0  0  0  0  0
    5.5935    8.3580    4.6546 C   0  0  0  0  0  0  0  0  0  0  0  0
    3.7107    8.2192    3.0317 C   0  0  0  0  0  0  0  0  0  0  0  0
    2.7969    9.4387    2.9201 C   0  0  0  0  0  0  0  0  0  0  0  0
    2.7574   10.1519    4.2430 C   0  0  0  0  0  3  0  0  0  0  0  0
    3.4396   11.4963    4.2045 C   0  0  1  0  0  0  0  0  0  0  0  0
    2.5636   12.5282    4.8347 C   0  0  0  0  0  0  0  0  0  0  0  0
    4.8056   11.4586    4.8564 C   0  0  1  0  0  0  0  0  0  0  0  0
    4.7172   10.6805    6.1361 C   0  0  0  0  0  0  0  0  0  0  0  0
    3.4931   10.7680    6.7516 O   0  0  0  0  0  0  0  0  0  0  0  0
  1  2  1  0
  2  3  1  0
  2  4  1  0
  4  5  1  0
  5  6  1  0
  6  7  1  0
  7  8  1  6
  7  9  1  0
  9 10  1  0
 10 11  1  0
 11 12  1  0
 12 13  1  0
 13 14  1  0
 14 15  1  0
 15 16  1  0
 17 16  1  6
 17 18  1  0
 18 19  1  6
 18 20  1  0
 20 21  1  1
 20 22  1  0
 22 23  1  0
 23 24  1  0
 24 25  1  0
 25 26  1  1
 25 27  1  0
 27 28  1  1
 28 29  1  0
 27 17  1  0
M  RAD  6   9   2  12   2  13   2  16   2  19   3  24   2
M  END
>  <docking_score>  (2) 
-2.6659999999999999

$$$$

     RDKit          3D

 29 29  0  0  0  0  0  0  0  0999 V2000
    6.3049    9.9969   11.8927 C   0  0  0  0  0  0  0  0  0  0  0  0
    4.8340    9.8377   11.6280 C   0  0  0  0  0  0  0  0  0  0  0  0
    4.5489    8.5318   10.9310 C   0  0  0  0  0  0  0  0  0  0  0  0
    4.0766    9.8321   12.9493 C   0  0  0  0  0  0  0  0  0  0  0  0
    4.7198   10.8516   13.8700 C   0  0  0  0  0  0  0  0  0  0  0  0
    3.8009   12.0535   13.9259 C   0  0  0  0  0  0  0  0  0  0  0  0
    4.5773   13.3153   13.5328 C   0  0  1  0  0  0  0  0  0  0  0  0
    6.0549   13.0101   13.6572 C   0  0  0  0  0  0  0  0  0  0  0  0
    4.2056   13.6397   12.1007 C   0  0  0  0  0  3  0  0  0  0  0  0
    2.7153   13.8078   12.0096 C   0  0  0  0  0  0  0  0  0  0  0  0
    2.2595   13.6942   10.5653 C   0  0  0  0  0  0  0  0  0  0  0  0
    2.8002   12.3840   10.0384 C   0  0  0  0  0  3  0  0  0  0  0  0
    3.4083   12.6112    8.6522 C   0  0  0  0  0  3  0  0  0  0  0  0
    4.5159   11.5705    8.4896 C   0  0  0  0  0  0  0  0  0  0  0  0
    4.4257   11.0742    7.0569 C   0  0  0  0  0  0  0  0  0  0  0  0
    3.0661   11.2982    6.4551 C   0  0  0  0  0  3  0  0  0  0  0  0
    3.1310   11.3516    4.9232 C   0  0  2  0  0  0  0  0  0  0  0  0
    3.6561   10.0133    4.4748 C   0  0  1  0  0  0  0  0  0  0  0  0
    3.4098    8.9200    5.4609 C   0  0  0  0  0  2  0  0  0  0  0  0
    3.2782    9.6460    3.0837 C   0  0  1  0  0  0  0  0  0  0  0  0
    2.5452   10.7036    2.3318 C   0  0  0  0  0  0  0  0  0  0  0  0
    4.5672    9.2512    2.3517 C   0  0  0  0  0  0  0  0  0  0  0  0
    5.7872    9.7674    3.1131 C   0  0  0  0  0  0  0  0  0  0  0  0
    5.7931   11.2705    3.0804 C   0  0  0  0  0  3  0  0  0  0  0  0
    5.5260   11.8870    4.4306 C   0  0  1  0  0  0  0  0  0  0  0  0
    6.5305   12.9564    4.7078 C   0  0  0  0  0  0  0  0  0  0  0  0
    4.1116   12.4151    4.5436 C   0  0  1  0  0  0  0  0  0  0  0  0
    3.7594   13.1485    3.2831 C   0  0  0  0  0  0  0  0  0  0  0  0
    4.7940   13.2290    2.3842 O   0  0  0  0  0  0  0  0  0  0  0  0
  1  2  1  0
  2  3  1  0
  2  4  1  0
  4  5  1  0
  5  6  1  0
  6  7  1  0
  7  8  1  6
  7  9  1  0
  9 10  1  0
 10 11  1  0
 11 12  1  0
 12 13  1  0
 13 14  1  0
 14 15  1  0
 15 16  1  0
 17 16  1  1
 17 18  1  0
 18 19  1  1
 18 20  1  0
 20 21  1  6
 20 22  1  0
 22 23  1  0
 23 24  1  0
 24 25  1  0
 25 26  1  6
 25 27  1  0
 27 28  1  6
 28 29  1  0
 27 17  1  0
M  RAD  6   9   2  12   2  13   2  16   2  19   3  24   2
M  END
>  <docking_score>  (3) 
-2.4390000000000001

$$$$
