
     RDKit          3D

 80 82  0  0  0  0  0  0  0  0999 V2000
    6.3420   12.8980    4.6729 C   0  0  2  0  0  0  0  0  0  0  0  0
    6.9334   13.5476    3.4736 C   0  0  1  0  0  0  0  0  0  0  0  0
    6.0602   13.6059    2.2330 C   0  0  0  0  0  0  0  0  0  0  0  0
    6.9549   15.0763    3.8379 C   0  0  0  0  0  0  0  0  0  0  0  0
    8.4439   15.5221    3.7519 C   0  0  0  0  0  0  0  0  0  0  0  0
    9.0051   15.5461    5.1819 C   0  0  0  0  0  0  0  0  0  0  0  0
   10.0682   14.3720    5.3921 C   0  0  1  0  0  0  0  0  0  0  0  0
    9.5963   13.4321    4.2450 C   0  0  0  0  0  0  0  0  0  0  0  0
    9.0983   12.1167    4.4640 C   0  0  0  0  0  0  0  0  0  0  0  0
   11.3403   15.1214    5.0243 C   0  0  0  0  0  0  0  0  0  0  0  0
   11.6823   14.9377    3.4828 C   0  0  0  0  0  0  0  0  0  0  0  0
   12.3309   13.6306    3.2314 C   0  0  0  0  0  3  0  0  0  0  0  0
   13.6451   13.3666    3.9951 C   0  0  0  0  0  2  0  0  0  0  0  0
   13.3908   12.1718    4.9319 C   0  0  0  0  0  0  0  0  0  0  0  0
   13.2353   10.9492    4.0802 C   0  0  2  0  0  0  0  0  0  0  0  0
   12.3856    9.8723    4.7986 C   0  0  0  0  0  2  0  0  0  0  0  0
   14.7606   10.4071    3.9725 C   0  0  2  0  0  0  0  0  0  0  0  0
   15.3119   11.0510    2.8124 C   0  0  0  0  0  0  0  0  0  0  0  0
   14.7971    8.9267    4.1053 C   0  0  0  0  0  0  0  0  0  0  0  0
   15.4553    8.2211    3.1208 O   0  0  0  0  0  0  0  0  0  0  0  0
   16.0510    8.9242    2.1346 C   0  0  0  0  0  3  0  0  0  0  0  0
   15.5312    8.7615    0.7637 C   0  0  2  0  0  0  0  0  0  0  0  0
   16.3983    9.4798   -0.2923 C   0  0  0  0  0  0  0  0  0  0  0  0
   17.5431   10.2039    0.2058 C   0  0  0  0  0  3  0  0  0  0  0  0
   18.5377    9.3093    0.9011 C   0  0  0  0  0  2  0  0  0  0  0  0
   19.9202    9.3940    0.2686 C   0  0  0  0  0  3  0  0  0  0  0  0
   20.0003    8.9086   -1.1354 C   0  0  0  0  0  0  0  0  0  0  0  0
   21.1380    7.7933   -1.0083 C   0  0  0  0  0  3  0  0  0  0  0  0
   20.2713    6.5156   -0.9321 C   0  0  0  0  0  0  0  0  0  0  0  0
   19.2885    6.4296   -1.7140 C   0  0  0  0  0  0  0  0  0  0  0  0
   18.4321    6.3715   -2.4011 C   0  0  0  0  0  0  0  0  0  0  0  0
   17.0418    6.2473   -3.5252 C   0  0  0  0  0  3  0  0  0  0  0  0
   17.7922    6.4938   -4.6547 O   0  0  0  0  0  0  0  0  0  0  0  0
   17.7799    5.1898   -5.3860 C   0  0  0  0  0  2  0  0  0  0  0  0
   16.9271    5.4037   -6.4989 O   0  0  0  0  0  0  0  0  0  0  0  0
   16.3692    4.0440   -6.6414 C   0  0  0  0  0  3  0  0  0  0  0  0
   16.7680    3.3430   -5.5194 O   0  0  0  0  0  0  0  0  0  0  0  0
   16.3493    2.0325   -5.6436 C   0  0  0  0  0  2  0  0  0  0  0  0
   14.1922    9.1802    0.5891 O   0  0  0  0  0  0  0  0  0  0  0  0
   13.4699    8.4106   -0.3493 C   0  0  0  0  0  0  0  0  0  0  0  0
   13.2461    9.2044   -1.6434 C   0  0  0  0  0  0  0  0  0  0  0  0
   12.9822   10.6667   -1.2465 C   0  0  0  0  0  0  0  0  0  0  0  0
   11.6794   10.6421   -0.3954 C   0  0  0  0  0  0  0  0  0  0  0  0
   11.6569    9.5424    0.6038 C   0  0  0  0  0  0  0  0  0  0  0  0
   10.5530    9.8136    1.5904 C   0  0  0  0  0  0  0  0  0  0  0  0
   10.2228    8.6914    2.5678 C   0  0  0  0  0  3  0  0  0  0  0  0
    9.4543    9.3343    3.5810 O   0  0  0  0  0  0  0  0  0  0  0  0
    8.1602    9.6408    2.9443 C   0  0  0  0  0  2  0  0  0  0  0  0
    8.5911   10.3769    1.7553 O   0  0  0  0  0  0  0  0  0  0  0  0
    7.5463   11.0256    1.3888 O   0  0  0  0  0  0  0  0  0  0  0  0
    6.4392   11.0325    2.2850 C   0  0  0  0  0  0  0  0  0  0  0  0
    6.7411   10.7940    3.5803 O   0  0  0  0  0  0  0  0  0  0  0  0
    6.3010   11.4031    4.6574 C   0  0  2  0  0  0  0  0  0  0  0  0
    5.0332   11.4440    5.1458 O   0  0  0  0  0  0  0  0  0  0  0  0
    4.8255   12.8338    4.8128 C   0  0  1  0  0  0  0  0  0  0  0  0
    4.4454   13.5591    5.9111 O   0  0  0  0  0  0  0  0  0  0  0  0
    3.8323   12.8274    6.8783 C   0  0  0  0  0  3  0  0  0  0  0  0
    4.5922   12.5990    8.0377 O   0  0  0  0  0  0  0  0  0  0  0  0
    3.9931   11.8703    8.9508 O   0  0  0  0  0  0  0  0  0  0  0  0
    3.9159   12.4527   10.2283 C   0  0  0  0  0  0  0  0  0  0  0  0
    2.5837   13.6032   10.2551 S   0  0  0  0  0  0  0  0  0  0  0  0
    2.5786   14.9253   11.4091 C   0  0  0  0  0  3  0  0  0  0  0  0
    3.2518   14.7488   12.7191 C   0  0  0  0  0  0  0  0  0  0  0  0
    2.8737   15.9918   13.5278 C   0  0  0  0  0  3  0  0  0  0  0  0
    3.2311   15.9951   14.8329 O   0  0  0  0  0  0  0  0  0  0  0  0
    2.3949   15.3730   15.7146 C   0  0  0  0  0  2  0  0  0  0  0  0
    2.8086   14.0419   15.9823 O   0  0  0  0  0  0  0  0  0  0  0  0
    3.9801   13.7885   15.1772 C   0  0  0  0  0  3  0  0  0  0  0  0
    4.7748   12.8842   15.8978 O   0  0  0  0  0  0  0  0  0  0  0  0
    5.3481   12.0056   14.8938 C   0  0  0  0  0  3  0  0  0  0  0  0
    6.4013   12.6560   14.2393 O   0  0  0  0  0  0  0  0  0  0  0  0
    6.0815   12.7687   12.8334 C   0  0  0  0  0  3  0  0  0  0  0  0
    6.6143   14.1084   12.4364 C   0  0  0  0  0  3  0  0  0  0  0  0
    6.1047   14.5937   11.1087 C   0  0  0  0  0  0  0  0  0  0  0  0
    6.6238   13.6581    9.9176 C   0  0  0  0  0  3  0  0  0  0  0  0
    6.7487   14.5753    8.8323 O   0  0  0  0  0  0  0  0  0  0  0  0
    7.7611   14.2663    8.1230 O   0  0  0  0  0  0  0  0  0  0  0  0
    7.9017   12.9051    7.8161 C   0  0  0  0  0  3  0  0  0  0  0  0
    7.6476   12.6039    6.5080 O   0  0  0  0  0  0  0  0  0  0  0  0
    6.8611   13.4755    5.9040 O   0  0  0  0  0  0  0  0  0  0  0  0
  1  2  1  0
  2  3  1  6
  2  4  1  0
  4  5  1  0
  5  6  1  0
  6  7  1  0
  7  8  1  6
  8  9  1  0
  7 10  1  0
 10 11  1  0
 11 12  1  0
 12 13  1  0
 13 14  1  0
 14 15  1  0
 15 16  1  1
 15 17  1  0
 17 18  1  6
 17 19  1  0
 19 20  1  0
 20 21  1  0
 21 22  1  0
 22 23  1  6
 23 24  1  0
 24 25  1  0
 25 26  1  0
 26 27  1  0
 27 28  1  0
 28 29  1  0
 29 30  1  0
 30 31  3  0
 31 32  1  0
 32 33  1  0
 33 34  1  0
 34 35  1  0
 35 36  1  0
 36 37  1  0
 37 38  1  0
 22 39  1  0
 39 40  1  0
 40 41  1  0
 41 42  1  0
 42 43  1  0
 43 44  1  0
 44 45  1  0
 45 46  1  0
 46 47  1  0
 47 48  1  0
 48 49  1  0
 49 50  1  0
 50 51  1  0
 51 52  1  0
 53 52  1  6
 53 54  1  0
 55 54  1  1
 55 56  1  0
 56 57  1  0
 57 58  1  0
 58 59  1  0
 59 60  1  0
 60 61  1  0
 61 62  1  0
 62 63  1  0
 63 64  1  0
 64 65  1  0
 65 66  1  0
 66 67  1  0
 67 68  1  0
 68 69  1  0
 69 70  1  0
 70 71  1  0
 71 72  1  0
 72 73  1  0
 73 74  1  0
 74 75  1  0
 75 76  1  0
 76 77  1  0
 77 78  1  0
 78 79  1  0
 79 80  1  0
 53  1  1  0
 55  1  1  0
  1 80  1  1
M  RAD  8  12   2  13   3  16   3  21   2  24   2  25   3  26   2  28   2
M  RAD  8  32   2  34   3  36   2  38   3  46   2  48   3  57   2  62   2
M  RAD  8  64   2  66   3  68   2  70   2  72   2  73   2  75   2  78   2
M  END
>  <docking_score>  (1) 
152.26400000000001

$$$$
