
     RDKit          3D

 24 25  0  0  0  0  0  0  0  0999 V2000
   13.7538    0.3119   -4.4867 C   0  0  0  0  0  0  0  0  0  0  0  0
   14.0694   -0.6859   -5.3091 O   0  0  0  0  0  0  0  0  0  0  0  0
   13.7012   -1.8796   -5.0191 C   0  0  0  0  0  3  0  0  0  0  0  0
   14.3838   -3.0442   -5.2374 O   0  0  0  0  0  0  0  0  0  0  0  0
   15.5661   -2.8961   -6.0176 C   0  0  2  0  0  0  0  0  0  0  0  0
   15.5093   -4.2566   -6.8968 C   0  0  0  0  0  0  0  0  0  0  0  0
   16.6792   -3.3754   -4.9894 C   0  0  2  0  0  0  0  0  0  0  0  0
   16.0986   -4.1649   -3.8777 C   0  0  1  0  0  0  0  0  0  0  0  0
   16.1814   -5.6231   -3.8798 C   0  0  0  0  0  3  0  0  0  0  0  0
   16.7913   -6.2644   -5.1638 C   0  0  0  0  0  0  0  0  0  0  0  0
   18.2344   -6.6063   -4.7146 C   0  0  1  0  0  0  0  0  0  0  0  0
   18.5782   -6.3799   -3.3485 C   0  0  0  0  0  0  0  0  0  0  0  0
   18.5371   -8.0726   -5.1189 C   0  0  0  0  0  0  0  0  0  0  0  0
   17.2438   -8.7465   -5.5879 C   0  0  0  0  0  0  0  0  0  0  0  0
   19.0768   -5.9157   -5.6735 O   0  0  0  0  0  0  0  0  0  0  0  0
   19.0561   -4.5179   -5.5295 C   0  0  0  0  0  2  0  0  0  0  0  0
   19.0552   -4.2710   -4.1588 O   0  0  0  0  0  0  0  0  0  0  0  0
   18.9170   -2.9152   -3.9787 C   0  0  2  0  0  0  0  0  0  0  0  0
   18.8589   -2.6596   -2.6209 O   0  0  0  0  0  0  0  0  0  0  0  0
   17.7010   -2.3994   -4.7357 C   0  0  1  0  0  0  0  0  0  0  0  0
   18.2267   -1.8367   -6.0642 C   0  0  0  0  0  2  0  0  0  0  0  0
   16.5046   -3.6262   -2.5161 C   0  0  0  0  0  0  0  0  0  0  0  0
   16.5490   -2.1437   -2.5036 C   0  0  0  0  0  0  0  0  0  0  0  0
   17.9678   -1.6543   -2.3380 C   0  0  0  0  0  3  0  0  0  0  0  0
  1  2  1  0
  2  3  1  0
  3  4  1  0
  4  5  1  0
  5  6  1  6
  7  5  1  1
  7  8  1  0
  8  9  1  6
  9 10  1  0
 10 11  1  0
 11 12  1  1
 11 13  1  0
 13 14  1  0
 11 15  1  0
 15 16  1  0
 16 17  1  0
 18 17  1  1
 18 19  1  0
 18 20  1  0
 20 21  1  6
  8 22  1  0
 22 23  1  0
 23 24  1  0
 20  7  1  0
 24 19  1  0
M  RAD  5   3   2   9   2  16   3  21   3  24   2
M  END
>  <docking_score>  (1) 
-5.1779999999999999

$$$$

     RDKit          3D

 24 25  0  0  0  0  0  0  0  0999 V2000
   12.6590   -5.5306   -8.5368 C   0  0  0  0  0  0  0  0  0  0  0  0
   13.9888   -5.4720   -8.5374 O   0  0  0  0  0  0  0  0  0  0  0  0
   14.6049   -5.1650   -7.4555 C   0  0  0  0  0  3  0  0  0  0  0  0
   15.8938   -4.7294   -7.3189 O   0  0  0  0  0  0  0  0  0  0  0  0
   16.5298   -5.1416   -6.1130 C   0  0  2  0  0  0  0  0  0  0  0  0
   15.2444   -5.6359   -5.2582 C   0  0  0  0  0  0  0  0  0  0  0  0
   16.7299   -3.7483   -5.3751 C   0  0  2  0  0  0  0  0  0  0  0  0
   15.8518   -3.6228   -4.1880 C   0  0  1  0  0  0  0  0  0  0  0  0
   16.3820   -3.8439   -2.8451 C   0  0  0  0  0  3  0  0  0  0  0  0
   17.8607   -4.3338   -2.7736 C   0  0  0  0  0  0  0  0  0  0  0  0
   18.6255   -3.0382   -2.4027 C   0  0  1  0  0  0  0  0  0  0  0  0
   17.8584   -1.8657   -2.1336 C   0  0  0  0  0  0  0  0  0  0  0  0
   19.5753   -3.3540   -1.2182 C   0  0  0  0  0  0  0  0  0  0  0  0
   20.6936   -2.3081   -1.1723 C   0  0  0  0  0  0  0  0  0  0  0  0
   19.6063   -2.8902   -3.4621 O   0  0  0  0  0  0  0  0  0  0  0  0
   19.0412   -2.5439   -4.7013 C   0  0  0  0  0  2  0  0  0  0  0  0
   18.0358   -1.6211   -4.4227 O   0  0  0  0  0  0  0  0  0  0  0  0
   17.3821   -1.3473   -5.6006 C   0  0  2  0  0  0  0  0  0  0  0  0
   16.3447   -0.4737   -5.3304 O   0  0  0  0  0  0  0  0  0  0  0  0
   16.9190   -2.6370   -6.2640 C   0  0  1  0  0  0  0  0  0  0  0  0
   17.9807   -2.9856   -7.3171 C   0  0  0  0  0  2  0  0  0  0  0  0
   15.0275   -2.3465   -4.2144 C   0  0  0  0  0  0  0  0  0  0  0  0
   14.5667   -2.0194   -5.5858 C   0  0  0  0  0  0  0  0  0  0  0  0
   15.2366   -0.7626   -6.0875 C   0  0  0  0  0  3  0  0  0  0  0  0
  1  2  1  0
  2  3  1  0
  3  4  1  0
  4  5  1  0
  5  6  1  1
  7  5  1  6
  7  8  1  0
  8  9  1  1
  9 10  1  0
 10 11  1  0
 11 12  1  1
 11 13  1  0
 13 14  1  0
 11 15  1  0
 15 16  1  0
 16 17  1  0
 18 17  1  1
 18 19  1  0
 18 20  1  0
 20 21  1  6
  8 22  1  0
 22 23  1  0
 23 24  1  0
 20  7  1  0
 24 19  1  0
M  RAD  5   3   2   9   2  16   3  21   3  24   2
M  END
>  <docking_score>  (2) 
-4.9409999999999998

$$$$

     RDKit          3D

 24 25  0  0  0  0  0  0  0  0999 V2000
   20.2265   -8.2445   -4.4211 C   0  0  0  0  0  0  0  0  0  0  0  0
   20.1087   -8.2746   -5.7466 O   0  0  0  0  0  0  0  0  0  0  0  0
   19.7035   -7.2271   -6.3655 C   0  0  0  0  0  3  0  0  0  0  0  0
   18.4951   -6.5980   -6.2476 O   0  0  0  0  0  0  0  0  0  0  0  0
   18.5084   -5.2234   -6.6201 C   0  0  2  0  0  0  0  0  0  0  0  0
   19.9292   -4.7629   -5.9904 C   0  0  0  0  0  0  0  0  0  0  0  0
   17.5822   -4.5876   -5.4959 C   0  0  2  0  0  0  0  0  0  0  0  0
   17.1381   -5.6012   -4.5102 C   0  0  1  0  0  0  0  0  0  0  0  0
   17.7924   -5.7084   -3.2087 C   0  0  0  0  0  3  0  0  0  0  0  0
   19.0365   -4.7918   -2.9993 C   0  0  0  0  0  0  0  0  0  0  0  0
   18.4613   -3.6371   -2.1408 C   0  0  1  0  0  0  0  0  0  0  0  0
   17.1075   -3.7430   -1.7029 C   0  0  0  0  0  0  0  0  0  0  0  0
   19.4093   -3.4057   -0.9355 C   0  0  0  0  0  0  0  0  0  0  0  0
   20.5539   -2.4807   -1.3610 C   0  0  0  0  0  0  0  0  0  0  0  0
   18.7572   -2.4425   -2.9099 O   0  0  0  0  0  0  0  0  0  0  0  0
   17.9946   -2.3323   -4.0851 C   0  0  0  0  0  2  0  0  0  0  0  0
   16.7109   -2.7591   -3.7538 O   0  0  0  0  0  0  0  0  0  0  0  0
   15.9653   -2.7761   -4.9086 C   0  0  2  0  0  0  0  0  0  0  0  0
   14.7025   -3.2509   -4.6050 O   0  0  0  0  0  0  0  0  0  0  0  0
   16.6681   -3.5938   -5.9833 C   0  0  1  0  0  0  0  0  0  0  0  0
   17.4152   -2.5880   -6.8711 C   0  0  0  0  0  2  0  0  0  0  0  0
   15.6290   -5.6078   -4.3319 C   0  0  0  0  0  0  0  0  0  0  0  0
   14.9239   -5.3822   -5.6172 C   0  0  0  0  0  0  0  0  0  0  0  0
   14.2132   -4.0499   -5.6084 C   0  0  0  0  0  3  0  0  0  0  0  0
  1  2  1  0
  2  3  1  0
  3  4  1  0
  4  5  1  0
  5  6  1  1
  7  5  1  6
  7  8  1  0
  8  9  1  1
  9 10  1  0
 10 11  1  0
 11 12  1  1
 11 13  1  0
 13 14  1  0
 11 15  1  0
 15 16  1  0
 16 17  1  0
 18 17  1  1
 18 19  1  0
 18 20  1  0
 20 21  1  6
  8 22  1  0
 22 23  1  0
 23 24  1  0
 20  7  1  0
 24 19  1  0
M  RAD  5   3   2   9   2  16   3  21   3  24   2
M  END
>  <docking_score>  (3) 
-4.8399999999999999

$$$$
