
     RDKit          3D

 84 86  0  0  0  0  0  0  0  0999 V2000
    5.1885   11.0497   15.3748 C   0  0  0  0  0  0  0  0  0  0  0  0
    4.0708   10.3602   14.6306 C   0  0  0  0  0  0  0  0  0  0  0  0
    2.7681   10.7070   15.3258 C   0  0  0  0  0  0  0  0  0  0  0  0
    3.9820   10.9082   13.2116 C   0  0  0  0  0  0  0  0  0  0  0  0
    5.0302   10.2694   12.3347 C   0  0  0  0  0  0  0  0  0  0  0  0
    4.4802    9.0424   11.6240 C   0  0  0  0  0  0  0  0  0  0  0  0
    5.3593    7.8641   11.8928 C   0  0  1  0  0  0  0  0  0  0  0  0
    4.5495    6.7616   12.4999 C   0  0  0  0  0  0  0  0  0  0  0  0
    6.2229    7.4453   10.7457 C   0  0  1  0  0  0  0  0  0  0  0  0
    6.1332    8.5446    9.7005 C   0  0  0  0  0  0  0  0  0  0  0  0
    5.1790    8.0664    8.6256 C   0  0  0  0  0  0  0  0  0  0  0  0
    5.9207    8.1480    7.3131 C   0  0  2  0  0  0  0  0  0  0  0  0
    5.0216    8.2749    6.1331 C   0  0  0  0  0  0  0  0  0  0  0  0
    6.9847    7.1050    7.1798 C   0  0  0  0  0  0  0  0  0  0  0  0
    6.4746    5.7851    6.6968 C   0  0  0  0  0  0  0  0  0  0  0  0
    6.3181    4.8334    7.8446 C   0  0  2  0  0  0  0  0  0  0  0  0
    4.9692    4.1419    7.6891 C   0  0  0  0  0  0  0  0  0  0  0  0
    6.3233    5.4889    9.1945 C   0  0  0  0  0  0  0  0  0  0  0  0
    7.4515    5.0943   10.0386 C   0  0  0  0  0  0  0  0  0  0  0  0
    8.0822    5.8124   10.9215 C   0  0  0  0  0  0  0  0  0  0  0  0
    9.1569    5.3440   11.6862 O   0  0  0  0  0  0  0  0  0  0  0  0
    7.6612    7.2150   11.1541 C   0  0  2  0  0  0  0  0  0  0  0  0
    7.7883    7.5051   12.5196 O   0  0  0  0  0  0  0  0  0  0  0  0
    8.5821    8.1115   10.4088 C   0  0  0  0  0  0  0  0  0  0  0  0
    8.8326    9.3443   10.8438 C   0  0  0  0  0  0  0  0  0  0  0  0
    9.7436   10.2735   10.1314 C   0  0  0  0  0  0  0  0  0  0  0  0
    9.8408    9.9163    8.6552 C   0  0  0  0  0  2  0  0  0  0  0  0
   10.5573   11.0005    7.9041 C   0  0  0  0  0  0  0  0  0  0  0  0
   10.7334   10.5680    6.4642 C   0  0  0  0  0  0  0  0  0  0  0  0
    9.5879    9.9875    5.9290 O   0  0  0  0  0  0  0  0  0  0  0  0
    8.6521   10.9895    5.6742 C   0  0  2  0  0  0  0  0  0  0  0  0
    8.3203   11.7744    6.9292 C   0  0  0  0  0  0  0  0  0  0  0  0
    6.8248   11.6049    7.1970 C   0  0  0  0  0  3  0  0  0  0  0  0
    6.4320   12.0606    8.5664 C   0  0  0  0  0  2  0  0  0  0  0  0
    4.9864   12.4835    8.6498 C   0  0  0  0  0  0  0  0  0  0  0  0
    4.0708   11.6175    7.8148 C   0  0  1  0  0  0  0  0  0  0  0  0
    3.1636   10.8526    8.7769 C   0  0  0  0  0  0  0  0  0  0  0  0
    3.1596   12.5565    7.0427 C   0  0  0  0  0  0  0  0  0  0  0  0
    3.3981   12.3120    5.5660 C   0  0  0  0  0  0  0  0  0  0  0  0
    2.2758   11.5650    4.9160 C   0  0  1  0  0  0  0  0  0  0  0  0
    2.2687   11.8059    3.5627 O   0  0  0  0  0  0  0  0  0  0  0  0
    2.4480   10.0633    5.1195 C   0  0  0  0  0  0  0  0  0  0  0  0
    2.9285    9.4160    3.8300 C   0  0  0  0  0  0  0  0  0  0  0  0
    3.4518    8.0210    4.0900 C   0  0  0  0  0  0  0  0  0  0  0  0
    4.9011    7.8786    3.6620 C   0  0  0  0  0  3  0  0  0  0  0  0
    5.7519    7.8825    4.8955 C   0  0  1  0  0  0  0  0  0  0  0  0
    7.0938    8.5051    4.7249 C   0  0  0  0  0  0  0  0  0  0  0  0
    7.1259   10.3447    4.8432 Si  0  0  0  0  0  3  0  0  0  0  0  0
    6.7915   11.1726    3.2148 C   0  0  1  0  0  0  0  0  0  0  0  0
    5.9593   12.2710    3.3476 O   0  0  0  0  0  0  0  0  0  0  0  0
    8.1023   11.6329    2.6315 C   0  0  0  0  0  0  0  0  0  0  0  0
    9.2223   10.7961    3.1995 C   0  0  0  0  0  0  0  0  0  0  0  0
    9.0922    9.3597    2.7469 C   0  0  0  0  0  0  0  0  0  0  0  0
    9.1134    9.3729    0.8614 Si  0  0  0  0  0  2  0  0  0  0  0  0
   10.7129    8.6215    0.2808 C   0  0  0  0  0  0  0  0  0  0  0  0
   11.9198    9.3983    0.6708 C   0  0  0  0  0  0  0  0  0  0  0  0
   12.9139    8.4991    1.3393 C   0  0  0  0  0  0  0  0  0  0  0  0
   12.9130    7.1349    0.6482 C   0  0  2  0  0  0  0  0  0  0  0  0
   13.5650    6.1844    1.6692 C   0  0  0  0  0  0  0  0  0  0  0  0
   13.8588    7.2465   -0.5413 C   0  0  0  0  0  3  0  0  0  0  0  0
   13.6804    6.0837   -1.4835 C   0  0  0  0  0  0  0  0  0  0  0  0
   13.3825    6.5930   -2.8537 C   0  0  0  0  0  0  0  0  0  0  0  0
   14.6488    6.7695   -3.6801 C   0  0  1  0  0  0  0  0  0  0  0  0
   15.4113    8.0053   -3.2349 C   0  0  0  0  0  0  0  0  0  0  0  0
   15.4791    5.5164   -3.4730 C   0  0  0  0  0  3  0  0  0  0  0  0
   15.0554    4.4168   -4.4336 C   0  0  0  0  0  0  0  0  0  0  0  0
   16.2292    3.8475   -5.1630 C   0  0  0  0  0  0  0  0  0  0  0  0
   15.9427    2.4457   -5.6022 C   0  0  0  0  0  0  0  0  0  0  0  0
   16.7064    1.4772   -4.9314 O   0  0  0  0  0  0  0  0  0  0  0  0
   18.0569    1.6462   -4.5899 C   0  0  0  0  0  0  0  0  0  0  0  0
   18.9731    0.2773   -4.6842 S   0  0  0  0  0  0  0  0  0  0  0  0
   20.7393    0.3210   -4.2760 C   0  0  0  0  0  0  0  0  0  0  0  0
   21.3804   -0.9330   -4.8408 C   0  0  0  0  0  0  0  0  0  0  0  0
   20.3725   -1.5507   -5.8072 C   0  0  0  0  0  3  0  0  0  0  0  0
   19.2693   -2.1372   -4.9691 C   0  0  0  0  0  0  0  0  0  0  0  0
   19.6299   -3.3793   -4.3287 N   0  0  0  0  0  0  0  0  0  0  0  0
   18.4628   -3.9558   -3.7319 C   0  0  0  0  0  0  0  0  0  0  0  0
   18.0069   -5.1815   -4.4577 C   0  0  0  0  0  3  0  0  0  0  0  0
   19.2453   -5.8237   -5.0750 C   0  0  0  0  0  0  0  0  0  0  0  0
   19.1417   -5.9016   -6.5783 C   0  0  0  0  0  0  0  0  0  0  0  0
   19.4956   -4.5841   -7.2395 C   0  0  0  0  0  0  0  0  0  0  0  0
   18.3638   -3.8029   -7.3670 O   0  0  0  0  0  0  0  0  0  0  0  0
   17.4348   -4.2895   -8.2568 C   0  0  0  0  0  0  0  0  0  0  0  0
   17.1772   -5.7427   -7.9099 C   0  0  0  0  0  0  0  0  0  0  0  0
  1  2  1  0
  2  3  1  0
  2  4  1  0
  4  5  1  0
  5  6  1  0
  6  7  1  0
  7  8  1  6
  7  9  1  0
  9 10  1  6
 10 11  1  0
 11 12  1  0
 12 13  1  6
 12 14  1  0
 14 15  1  0
 15 16  1  0
 16 17  1  6
 16 18  1  0
 18 19  1  0
 19 20  2  3
 20 21  1  0
 20 22  1  0
 22 23  1  1
 22 24  1  0
 24 25  2  3
 25 26  1  0
 26 27  1  0
 27 28  1  0
 28 29  1  0
 29 30  1  0
 30 31  1  0
 31 32  1  1
 32 33  1  0
 33 34  1  0
 34 35  1  0
 35 36  1  0
 36 37  1  1
 36 38  1  0
 38 39  1  0
 39 40  1  0
 40 41  1  6
 40 42  1  0
 42 43  1  0
 43 44  1  0
 44 45  1  0
 46 45  1  6
 46 47  1  0
 47 48  1  0
 48 49  1  0
 49 50  1  1
 49 51  1  0
 51 52  1  0
 52 53  1  0
 53 54  1  0
 54 55  1  0
 55 56  1  0
 56 57  1  0
 57 58  1  0
 58 59  1  1
 58 60  1  0
 60 61  1  0
 61 62  1  0
 62 63  1  0
 63 64  1  1
 63 65  1  0
 65 66  1  0
 66 67  1  0
 67 68  1  0
 68 69  1  0
 69 70  1  0
 70 71  2  3
 71 72  1  0
 72 73  1  0
 73 74  1  0
 74 75  1  0
 75 76  1  0
 76 77  1  0
 77 78  1  0
 78 79  1  0
 79 80  1  0
 80 81  1  0
 81 82  1  0
 82 83  1  0
 83 84  1  0
 22  9  1  0
 46 13  1  0
 48 31  1  0
M  RAD  8  27   3  33   2  34   3  45   2  48   2  54   3  60   2  65   2
M  RAD  2  74   2  78   2
M  END
>  <docking_score>  (1) 
116.351

$$$$
