
     RDKit          3D

 20 20  0  0  0  0  0  0  0  0999 V2000
   15.5659   -2.4374   -7.2247 C   0  0  0  0  0  0  0  0  0  0  0  0
   16.2070   -3.5174   -7.7110 O   0  0  0  0  0  0  0  0  0  0  0  0
   15.3347   -4.6046   -7.8641 C   0  0  0  0  0  3  0  0  0  0  0  0
   16.0156   -5.8112   -7.7143 O   0  0  0  0  0  0  0  0  0  0  0  0
   16.7301   -5.8389   -6.5279 C   0  0  2  0  0  0  0  0  0  0  0  0
   16.7327   -7.2226   -5.9333 C   0  0  0  0  0  0  0  0  0  0  0  0
   16.2046   -4.7841   -5.6032 C   0  0  1  0  0  0  0  0  0  0  0  0
   14.8305   -5.1134   -5.2430 N   0  0  0  0  0  0  0  0  0  0  0  0
   14.0690   -3.8699   -5.3454 C   0  0  0  0  0  3  0  0  0  0  0  0
   14.8269   -2.6913   -4.8137 C   0  0  0  0  0  0  0  0  0  0  0  0
   15.7844   -2.2140   -5.7238 C   0  0  2  0  0  0  0  0  0  0  0  0
   16.4693   -1.0693   -5.6029 O   0  0  0  0  0  0  0  0  0  0  0  0
   17.7235   -1.0521   -6.1013 O   0  0  0  0  0  0  0  0  0  0  0  0
   18.7848   -1.4906   -5.4026 C   0  0  0  0  0  0  0  0  0  0  0  0
   18.4466   -1.2907   -4.0420 O   0  0  0  0  0  0  0  0  0  0  0  0
   19.5813   -1.2069   -3.2639 C   0  0  0  0  0  3  0  0  0  0  0  0
   19.1535   -1.5007   -1.8040 C   0  0  0  0  0  0  0  0  0  0  0  0
   19.7328   -3.3018   -1.3502 Br  0  0  0  0  0  0  0  0  0  0  0  0
   17.0610   -4.5435   -4.3907 C   0  0  0  0  0  3  0  0  0  0  0  0
   16.5602   -5.2730   -3.1754 C   0  0  0  0  0  2  0  0  0  0  0  0
  1  2  1  0
  2  3  1  0
  3  4  1  0
  4  5  1  0
  5  6  1  1
  5  7  1  0
  7  8  1  0
  8  9  1  0
  9 10  1  0
 10 11  1  0
 11 12  1  6
 12 13  1  0
 13 14  1  0
 14 15  1  0
 15 16  1  0
 16 17  1  0
 17 18  1  0
  7 19  1  1
 19 20  1  0
 11  1  1  0
M  RAD  5   3   2   9   2  16   2  19   2  20   3
M  END
>  <docking_score>  (1) 
-3.798

$$$$

     RDKit          3D

 20 20  0  0  0  0  0  0  0  0999 V2000
   18.5368   -3.6057   -6.3468 C   0  0  0  0  0  0  0  0  0  0  0  0
   17.7113   -4.2246   -5.4813 O   0  0  0  0  0  0  0  0  0  0  0  0
   17.0390   -5.2938   -6.0907 C   0  0  0  0  0  3  0  0  0  0  0  0
   15.7941   -5.4984   -5.4987 O   0  0  0  0  0  0  0  0  0  0  0  0
   15.0557   -4.3269   -5.4678 C   0  0  2  0  0  0  0  0  0  0  0  0
   13.5905   -4.6086   -5.6725 C   0  0  0  0  0  0  0  0  0  0  0  0
   15.6268   -3.3501   -6.4495 C   0  0  1  0  0  0  0  0  0  0  0  0
   15.4629   -3.8835   -7.7966 N   0  0  0  0  0  0  0  0  0  0  0  0
   16.7335   -3.6621   -8.4844 C   0  0  0  0  0  3  0  0  0  0  0  0
   17.3278   -2.3230   -8.1679 C   0  0  0  0  0  0  0  0  0  0  0  0
   17.9674   -2.3017   -6.9176 C   0  0  2  0  0  0  0  0  0  0  0  0
   18.7435   -1.3116   -6.4580 O   0  0  0  0  0  0  0  0  0  0  0  0
   18.4180   -0.7868   -5.2579 O   0  0  0  0  0  0  0  0  0  0  0  0
   19.3351   -0.5275   -4.3099 C   0  0  0  0  0  0  0  0  0  0  0  0
   19.0938   -1.4749   -3.2854 O   0  0  0  0  0  0  0  0  0  0  0  0
   19.6925   -1.0833   -2.1071 C   0  0  0  0  0  3  0  0  0  0  0  0
   19.9602   -2.3688   -1.2847 C   0  0  0  0  0  0  0  0  0  0  0  0
   18.8654   -3.8002   -2.0182 Br  0  0  0  0  0  0  0  0  0  0  0  0
   15.0753   -1.9566   -6.3260 C   0  0  0  0  0  3  0  0  0  0  0  0
   15.0381   -1.4736   -4.9028 C   0  0  0  0  0  2  0  0  0  0  0  0
  1  2  1  0
  2  3  1  0
  3  4  1  0
  4  5  1  0
  5  6  1  6
  5  7  1  0
  7  8  1  0
  8  9  1  0
  9 10  1  0
 10 11  1  0
 11 12  1  6
 12 13  1  0
 13 14  1  0
 14 15  1  0
 15 16  1  0
 16 17  1  0
 17 18  1  0
  7 19  1  6
 19 20  1  0
 11  1  1  0
M  RAD  5   3   2   9   2  16   2  19   2  20   3
M  END
>  <docking_score>  (2) 
-3.7629999999999999

$$$$

     RDKit          3D

 20 20  0  0  0  0  0  0  0  0999 V2000
   16.2729   -3.2594   -6.9268 C   0  0  0  0  0  0  0  0  0  0  0  0
   16.9596   -4.3941   -7.1608 O   0  0  0  0  0  0  0  0  0  0  0  0
   16.1258   -5.4018   -7.6666 C   0  0  0  0  0  3  0  0  0  0  0  0
   16.5945   -6.6624   -7.3015 O   0  0  0  0  0  0  0  0  0  0  0  0
   16.7943   -6.7455   -5.9333 C   0  0  2  0  0  0  0  0  0  0  0  0
   16.4538   -8.1205   -5.4221 C   0  0  0  0  0  0  0  0  0  0  0  0
   16.0437   -5.6433   -5.2509 C   0  0  1  0  0  0  0  0  0  0  0  0
   14.6144   -5.8491   -5.4533 N   0  0  0  0  0  0  0  0  0  0  0  0
   14.0563   -4.5445   -5.8044 C   0  0  0  0  0  3  0  0  0  0  0  0
   14.6472   -3.4335   -4.9903 C   0  0  0  0  0  0  0  0  0  0  0  0
   15.9165   -3.0470   -5.4508 C   0  0  2  0  0  0  0  0  0  0  0  0
   16.5951   -1.9659   -5.0450 O   0  0  0  0  0  0  0  0  0  0  0  0
   17.8162   -2.1760   -4.5099 O   0  0  0  0  0  0  0  0  0  0  0  0
   18.2675   -1.4880   -3.4470 C   0  0  0  0  0  0  0  0  0  0  0  0
   19.0825   -2.3974   -2.7300 O   0  0  0  0  0  0  0  0  0  0  0  0
   19.6064   -1.8004   -1.6034 C   0  0  0  0  0  3  0  0  0  0  0  0
   20.4923   -2.8584   -0.8990 C   0  0  0  0  0  0  0  0  0  0  0  0
   21.0467   -4.1693   -2.2255 Br  0  0  0  0  0  0  0  0  0  0  0  0
   16.3861   -5.4713   -3.7967 C   0  0  0  0  0  3  0  0  0  0  0  0
   17.8624   -5.5786   -3.5339 C   0  0  0  0  0  2  0  0  0  0  0  0
  1  2  1  0
  2  3  1  0
  3  4  1  0
  4  5  1  0
  5  6  1  1
  5  7  1  0
  7  8  1  0
  8  9  1  0
  9 10  1  0
 10 11  1  0
 11 12  1  6
 12 13  1  0
 13 14  1  0
 14 15  1  0
 15 16  1  0
 16 17  1  0
 17 18  1  0
  7 19  1  1
 19 20  1  0
 11  1  1  0
M  RAD  5   3   2   9   2  16   2  19   2  20   3
M  END
>  <docking_score>  (3) 
-3.6499999999999999

$$$$
