
     RDKit          3D

 26 26  0  0  0  0  0  0  0  0999 V2000
   16.4774   -4.6928   -7.1259 C   0  0  0  0  0  0  0  0  0  0  0  0
   15.8655   -4.6411   -5.7632 C   0  0  1  0  0  0  0  0  0  0  0  0
   14.6220   -5.4526   -5.6240 C   0  0  0  0  0  0  0  0  0  0  0  0
   14.8985   -6.9461   -5.5272 C   0  0  2  0  0  0  0  0  0  0  0  0
   14.3757   -7.3526   -4.2880 O   0  0  0  0  0  0  0  0  0  0  0  0
   16.4088   -7.1441   -5.4328 C   0  0  2  0  0  0  0  0  0  0  0  0
   16.7239   -8.4744   -5.2720 O   0  0  0  0  0  0  0  0  0  0  0  0
   16.8976   -6.3058   -4.2979 C   0  0  1  0  0  0  0  0  0  0  0  0
   18.0704   -6.7386   -3.7305 O   0  0  0  0  0  0  0  0  0  0  0  0
   16.8740   -4.8657   -4.6765 C   0  0  1  0  0  0  0  0  0  0  0  0
   18.1541   -4.3795   -5.1500 N   0  0  0  0  0  0  0  0  0  0  0  0
   18.6491   -3.2838   -4.3450 C   0  0  0  0  0  3  0  0  0  0  0  0
   19.5521   -2.3546   -5.1398 C   0  0  1  0  0  0  0  0  0  0  0  0
   20.6852   -1.8181   -4.3264 C   0  0  0  0  0  0  0  0  0  0  0  0
   20.7107   -2.3113   -3.0348 O   0  0  0  0  0  0  0  0  0  0  0  0
   20.7261   -1.3036   -2.0847 C   0  0  0  0  0  3  0  0  0  0  0  0
   20.9149   -1.9060   -0.8442 O   0  0  0  0  0  0  0  0  0  0  0  0
   20.1517   -3.0531   -0.7946 C   0  0  0  0  0  2  0  0  0  0  0  0
   20.0845   -3.0148   -6.2567 O   0  0  0  0  0  0  0  0  0  0  0  0
   18.6998   -1.2063   -5.6164 C   0  0  2  0  0  0  0  0  0  0  0  0
   19.5319    0.0492   -5.5458 C   0  0  0  0  0  2  0  0  0  0  0  0
   17.4332   -1.0589   -4.8381 C   0  0  0  0  0  3  0  0  0  0  0  0
   16.0383   -1.0727   -5.9961 S   0  0  0  0  0  0  0  0  0  0  0  0
   14.8592    0.0611   -5.5318 O   0  0  0  0  0  0  0  0  0  0  0  0
   13.9308   -0.4676   -4.7875 O   0  0  0  0  0  0  0  0  0  0  0  0
   13.9221   -1.7618   -5.0175 O   0  0  0  0  0  0  0  0  0  0  0  0
  2  1  1  6
  2  3  1  0
  3  4  1  0
  4  5  1  1
  4  6  1  0
  6  7  1  1
  6  8  1  0
  8  9  1  6
  8 10  1  0
 10 11  1  6
 11 12  1  0
 12 13  1  0
 13 14  1  0
 14 15  1  0
 15 16  1  0
 16 17  1  0
 17 18  1  0
 13 19  1  6
 13 20  1  0
 20 21  1  1
 20 22  1  0
 22 23  1  0
 23 24  1  0
 24 25  1  0
 25 26  1  0
 10  2  1  0
M  RAD  5  12   2  16   2  18   3  21   3  22   2
M  END
>  <docking_score>  (1) 
-3.4670000000000001

$$$$

     RDKit          3D

 26 26  0  0  0  0  0  0  0  0999 V2000
    6.1583    7.8838    5.4274 C   0  0  0  0  0  0  0  0  0  0  0  0
    5.1712    7.3931    4.4180 C   0  0  1  0  0  0  0  0  0  0  0  0
    4.5202    6.1017    4.7821 C   0  0  0  0  0  0  0  0  0  0  0  0
    3.4565    6.2589    5.8593 C   0  0  2  0  0  0  0  0  0  0  0  0
    2.2575    5.8081    5.2817 O   0  0  0  0  0  0  0  0  0  0  0  0
    3.2634    7.7499    6.1216 C   0  0  2  0  0  0  0  0  0  0  0  0
    2.2607    7.9645    7.0399 O   0  0  0  0  0  0  0  0  0  0  0  0
    2.9761    8.3996    4.8082 C   0  0  1  0  0  0  0  0  0  0  0  0
    2.2716    9.5748    4.8931 O   0  0  0  0  0  0  0  0  0  0  0  0
    4.2163    8.4657    3.9864 C   0  0  1  0  0  0  0  0  0  0  0  0
    4.9009    9.7385    4.0886 N   0  0  0  0  0  0  0  0  0  0  0  0
    4.4531   10.6771    3.0826 C   0  0  0  0  0  3  0  0  0  0  0  0
    5.2037   11.9966    3.1591 C   0  0  1  0  0  0  0  0  0  0  0  0
    6.5461   11.8590    3.8012 C   0  0  0  0  0  0  0  0  0  0  0  0
    7.5857   12.2616    2.9832 O   0  0  0  0  0  0  0  0  0  0  0  0
    8.0271   13.5403    3.2803 C   0  0  0  0  0  3  0  0  0  0  0  0
    9.4182   13.5191    3.2388 O   0  0  0  0  0  0  0  0  0  0  0  0
    9.8988   14.1969    4.3389 C   0  0  0  0  0  2  0  0  0  0  0  0
    5.3807   12.5422    1.8793 O   0  0  0  0  0  0  0  0  0  0  0  0
    4.3603   12.9415    3.9763 C   0  0  2  0  0  0  0  0  0  0  0  0
    2.9367   12.8293    3.4919 C   0  0  0  0  0  2  0  0  0  0  0  0
    4.8419   14.3543    3.9138 C   0  0  0  0  0  3  0  0  0  0  0  0
    5.0077   14.9838    5.6057 S   0  0  0  0  0  0  0  0  0  0  0  0
    5.8577   13.8783    6.5788 O   0  0  0  0  0  0  0  0  0  0  0  0
    6.9304   14.4012    7.0999 O   0  0  0  0  0  0  0  0  0  0  0  0
    6.6838   14.6390    8.3689 O   0  0  0  0  0  0  0  0  0  0  0  0
  2  1  1  1
  2  3  1  0
  3  4  1  0
  4  5  1  6
  4  6  1  0
  6  7  1  1
  6  8  1  0
  8  9  1  1
  8 10  1  0
 10 11  1  1
 11 12  1  0
 12 13  1  0
 13 14  1  0
 14 15  1  0
 15 16  1  0
 16 17  1  0
 17 18  1  0
 13 19  1  6
 13 20  1  0
 20 21  1  6
 20 22  1  0
 22 23  1  0
 23 24  1  0
 24 25  1  0
 25 26  1  0
 10  2  1  0
M  RAD  5  12   2  16   2  18   3  21   3  22   2
M  END
>  <docking_score>  (2) 
-2.4889999999999999

$$$$

     RDKit          3D

 26 26  0  0  0  0  0  0  0  0999 V2000
   17.5054   -1.7223   -3.5960 C   0  0  0  0  0  0  0  0  0  0  0  0
   16.1457   -2.3190   -3.4248 C   0  0  1  0  0  0  0  0  0  0  0  0
   15.1439   -1.3882   -2.8296 C   0  0  0  0  0  0  0  0  0  0  0  0
   14.6456   -0.3446   -3.8190 C   0  0  2  0  0  0  0  0  0  0  0  0
   13.2574   -0.5397   -3.9143 O   0  0  0  0  0  0  0  0  0  0  0  0
   15.2142   -0.6843   -5.1939 C   0  0  2  0  0  0  0  0  0  0  0  0
   14.7435    0.1846   -6.1520 O   0  0  0  0  0  0  0  0  0  0  0  0
   14.8501   -2.1022   -5.4884 C   0  0  1  0  0  0  0  0  0  0  0  0
   14.7939   -2.4129   -6.8244 O   0  0  0  0  0  0  0  0  0  0  0  0
   15.6738   -3.0260   -4.6601 C   0  0  1  0  0  0  0  0  0  0  0  0
   16.8396   -3.5305   -5.3569 N   0  0  0  0  0  0  0  0  0  0  0  0
   16.6998   -4.9276   -5.7064 C   0  0  0  0  0  3  0  0  0  0  0  0
   18.0277   -5.6651   -5.6511 C   0  0  1  0  0  0  0  0  0  0  0  0
   18.1325   -6.5747   -4.4700 C   0  0  0  0  0  0  0  0  0  0  0  0
   18.3298   -7.8985   -4.8171 O   0  0  0  0  0  0  0  0  0  0  0  0
   19.6665   -8.2596   -4.7850 C   0  0  0  0  0  3  0  0  0  0  0  0
   20.0737   -8.2248   -3.4544 O   0  0  0  0  0  0  0  0  0  0  0  0
   21.3584   -8.7192   -3.3773 C   0  0  0  0  0  2  0  0  0  0  0  0
   18.2216   -6.4265   -6.8129 O   0  0  0  0  0  0  0  0  0  0  0  0
   19.1128   -4.6222   -5.5686 C   0  0  2  0  0  0  0  0  0  0  0  0
   19.9993   -4.7787   -6.7784 C   0  0  0  0  0  2  0  0  0  0  0  0
   19.9050   -4.7048   -4.3048 C   0  0  0  0  0  3  0  0  0  0  0  0
   21.2396   -3.4800   -4.3781 S   0  0  0  0  0  0  0  0  0  0  0  0
   20.6536   -1.9836   -4.9339 O   0  0  0  0  0  0  0  0  0  0  0  0
   21.0273   -0.9936   -4.1751 O   0  0  0  0  0  0  0  0  0  0  0  0
   21.3825   -1.4927   -3.0121 O   0  0  0  0  0  0  0  0  0  0  0  0
  2  1  1  6
  2  3  1  0
  3  4  1  0
  4  5  1  6
  4  6  1  0
  6  7  1  6
  6  8  1  0
  8  9  1  6
  8 10  1  0
 10 11  1  6
 11 12  1  0
 12 13  1  0
 13 14  1  0
 14 15  1  0
 15 16  1  0
 16 17  1  0
 17 18  1  0
 13 19  1  6
 13 20  1  0
 20 21  1  6
 20 22  1  0
 22 23  1  0
 23 24  1  0
 24 25  1  0
 25 26  1  0
 10  2  1  0
M  RAD  5  12   2  16   2  18   3  21   3  22   2
M  END
>  <docking_score>  (3) 
-1.419

$$$$
