
     RDKit          3D

 17 16  0  0  0  0  0  0  0  0999 V2000
   13.7828   -0.1684   -4.4359 C   0  0  0  0  0  0  0  0  0  0  0  0
   14.3898   -0.4537   -5.7995 C   0  0  0  0  0  3  0  0  0  0  0  0
   15.4554   -1.5092   -5.5904 C   0  0  0  0  0  0  0  0  0  0  0  0
   14.8852   -2.8324   -6.0142 C   0  0  2  0  0  0  0  0  0  0  0  0
   14.7986   -3.7523   -4.9842 O   0  0  0  0  0  0  0  0  0  0  0  0
   15.6205   -3.4571   -7.1677 C   0  0  2  0  0  0  0  0  0  0  0  0
   14.8369   -3.5347   -8.3129 O   0  0  0  0  0  0  0  0  0  0  0  0
   15.9827   -4.8826   -6.7291 C   0  0  1  0  0  0  0  0  0  0  0  0
   15.1453   -5.8041   -7.3496 O   0  0  0  0  0  0  0  0  0  0  0  0
   17.4018   -5.1075   -7.2076 C   0  0  0  0  0  3  0  0  0  0  0  0
   18.4181   -4.5207   -6.2755 C   0  0  0  0  0  3  0  0  0  0  0  0
   18.0368   -4.6488   -4.9007 N   0  0  0  0  0  0  0  0  0  0  0  0
   18.3772   -3.4843   -4.1805 N   0  0  0  0  0  0  0  0  0  0  0  0
   18.1850   -3.7447   -2.7571 C   0  0  0  0  0  3  0  0  0  0  0  0
   16.9298   -3.0845   -2.2868 C   0  0  0  0  0  0  0  0  0  0  0  0
   16.9326   -1.7752   -2.1691 C   0  0  0  0  0  0  0  0  0  0  0  0
   15.7778   -1.1376   -1.7337 O   0  0  0  0  0  0  0  0  0  0  0  0
  1  2  1  0
  2  3  1  0
  3  4  1  0
  4  5  1  1
  4  6  1  0
  6  7  1  6
  6  8  1  0
  8  9  1  6
  8 10  1  0
 10 11  1  0
 11 12  1  0
 12 13  1  0
 13 14  1  0
 14 15  1  0
 15 16  2  3
 16 17  1  0
M  RAD  4   2   2  10   2  11   2  14   2
M  END
>  <docking_score>  (1) 
-3.2010000000000001

$$$$

     RDKit          3D

 17 16  0  0  0  0  0  0  0  0999 V2000
   15.4742   -2.5708   -7.6751 C   0  0  0  0  0  0  0  0  0  0  0  0
   15.7141   -1.5350   -6.5894 C   0  0  0  0  0  3  0  0  0  0  0  0
   17.1707   -1.6498   -6.1913 C   0  0  0  0  0  0  0  0  0  0  0  0
   17.2248   -2.0977   -4.7588 C   0  0  2  0  0  0  0  0  0  0  0  0
   16.0949   -1.7652   -4.0327 O   0  0  0  0  0  0  0  0  0  0  0  0
   18.4410   -1.6041   -4.0247 C   0  0  2  0  0  0  0  0  0  0  0  0
   19.1183   -0.6168   -4.7303 O   0  0  0  0  0  0  0  0  0  0  0  0
   19.3720   -2.8140   -3.8668 C   0  0  1  0  0  0  0  0  0  0  0  0
   20.5471   -2.4361   -3.2253 O   0  0  0  0  0  0  0  0  0  0  0  0
   18.6230   -3.7917   -2.9856 C   0  0  0  0  0  3  0  0  0  0  0  0
   19.1403   -5.1919   -3.1186 C   0  0  0  0  0  3  0  0  0  0  0  0
   18.0879   -6.1635   -3.1394 N   0  0  0  0  0  0  0  0  0  0  0  0
   17.3464   -6.0668   -4.3358 N   0  0  0  0  0  0  0  0  0  0  0  0
   15.9263   -6.0216   -4.0007 C   0  0  0  0  0  3  0  0  0  0  0  0
   15.1730   -5.3191   -5.0830 C   0  0  0  0  0  0  0  0  0  0  0  0
   14.2042   -5.9757   -5.6816 C   0  0  0  0  0  0  0  0  0  0  0  0
   13.4888   -5.3444   -6.6911 O   0  0  0  0  0  0  0  0  0  0  0  0
  1  2  1  0
  2  3  1  0
  3  4  1  0
  4  5  1  1
  4  6  1  0
  6  7  1  6
  6  8  1  0
  8  9  1  1
  8 10  1  0
 10 11  1  0
 11 12  1  0
 12 13  1  0
 13 14  1  0
 14 15  1  0
 15 16  2  3
 16 17  1  0
M  RAD  4   2   2  10   2  11   2  14   2
M  END
>  <docking_score>  (2) 
-3.0569999999999999

$$$$

     RDKit          3D

 17 16  0  0  0  0  0  0  0  0999 V2000
   20.0677   -8.2051   -3.8545 C   0  0  0  0  0  0  0  0  0  0  0  0
   19.5820   -8.1530   -5.2935 C   0  0  0  0  0  3  0  0  0  0  0  0
   19.0482   -6.7546   -5.5233 C   0  0  0  0  0  0  0  0  0  0  0  0
   18.0449   -6.4596   -4.4453 C   0  0  2  0  0  0  0  0  0  0  0  0
   16.7545   -6.8360   -4.7733 O   0  0  0  0  0  0  0  0  0  0  0  0
   18.0396   -5.0192   -4.0131 C   0  0  2  0  0  0  0  0  0  0  0  0
   18.8836   -4.2328   -4.7881 O   0  0  0  0  0  0  0  0  0  0  0  0
   18.5502   -4.9997   -2.5658 C   0  0  1  0  0  0  0  0  0  0  0  0
   19.9398   -4.9369   -2.5469 O   0  0  0  0  0  0  0  0  0  0  0  0
   17.9921   -3.7317   -1.9544 C   0  0  0  0  0  3  0  0  0  0  0  0
   16.5250   -3.5704   -2.2144 C   0  0  0  0  0  3  0  0  0  0  0  0
   16.1567   -2.2044   -2.4379 N   0  0  0  0  0  0  0  0  0  0  0  0
   16.2234   -1.8905   -3.8118 N   0  0  0  0  0  0  0  0  0  0  0  0
   14.9491   -1.3057   -4.2181 C   0  0  0  0  0  3  0  0  0  0  0  0
   14.8682   -1.2543   -5.7091 C   0  0  0  0  0  0  0  0  0  0  0  0
   15.4743   -2.2021   -6.3892 C   0  0  0  0  0  0  0  0  0  0  0  0
   15.4138   -2.1767   -7.7766 O   0  0  0  0  0  0  0  0  0  0  0  0
  1  2  1  0
  2  3  1  0
  3  4  1  0
  4  5  1  6
  4  6  1  0
  6  7  1  6
  6  8  1  0
  8  9  1  6
  8 10  1  0
 10 11  1  0
 11 12  1  0
 12 13  1  0
 13 14  1  0
 14 15  1  0
 15 16  2  3
 16 17  1  0
M  RAD  4   2   2  10   2  11   2  14   2
M  END
>  <docking_score>  (3) 
-2.976

$$$$
