
     RDKit          3D

 61 62  0  0  0  0  0  0  0  0999 V2000
    3.7380    6.3686    2.4504 C   0  0  0  0  0  0  0  0  0  0  0  0
    4.5506    7.6165    2.6313 C   0  0  0  0  0  0  0  0  0  0  0  0
    5.7606    7.8539    1.7773 C   0  0  0  0  0  0  0  0  0  0  0  0
    4.1529    8.6269    3.6661 C   0  0  0  0  0  0  0  0  0  0  0  0
    5.2034    9.4395    4.3635 C   0  0  0  0  0  0  0  0  0  0  0  0
    4.9600    9.9449    5.7546 C   0  0  0  0  0  0  0  0  0  0  0  0
    4.2679    8.7886    6.4134 C   0  0  0  0  0  0  0  0  0  0  0  0
    4.2033    7.7686    5.3154 C   0  0  0  0  0  0  0  0  0  0  0  0
    3.6044    8.0862    7.5609 C   0  0  0  0  0  3  0  0  0  0  0  0
    3.1012    7.9769    8.9697 C   0  0  0  0  0  0  0  0  0  0  0  0
    2.8577    8.4823   10.3608 C   0  0  0  0  0  0  0  0  0  0  0  0
    2.9222    9.5022   11.4588 C   0  0  0  0  0  0  0  0  0  0  0  0
    2.2588    8.7998   12.6062 C   0  0  0  0  0  0  0  0  0  0  0  0
    3.2820   10.8348   12.0461 C   0  0  0  0  0  3  0  0  0  0  0  0
    3.8657   12.2159   12.0064 C   0  0  0  0  0  0  0  0  0  0  0  0
    4.7247   13.2837   10.7218 C   0  0  0  0  0  0  0  0  0  0  0  0
    4.4776   12.0469    9.9098 C   0  0  0  0  0  3  0  0  0  0  0  0
    4.6615   11.4269    8.5563 C   0  0  0  0  0  0  0  0  0  0  0  0
    5.2061   11.6605    7.1784 C   0  0  0  0  0  0  0  0  0  0  0  0
    4.9590   10.4238    6.3664 C   0  0  0  0  0  0  0  0  0  0  0  0
    5.9688    9.9796    5.3501 C   0  0  0  0  0  0  0  0  0  0  0  0
    5.3085   14.6649   10.6821 O   0  0  0  0  0  0  0  0  0  0  0  0
    6.0058   15.6629    9.8060 C   0  0  0  0  0  0  0  0  0  0  0  0
    6.5504   15.8965    8.4280 C   0  0  0  0  0  3  0  0  0  0  0  0
    6.7343   15.2766    7.0745 O   0  0  0  0  0  0  0  0  0  0  0  0
    6.4872   14.0397    6.2626 C   0  0  0  0  0  0  0  0  0  0  0  0
    5.9034   12.6586    6.3022 C   0  0  0  0  0  0  0  0  0  0  0  0
    5.5437   11.3260    5.7149 C   0  0  0  0  0  0  0  0  0  0  0  0
    6.0470   11.4353    4.3061 C   0  0  0  0  0  0  0  0  0  0  0  0
    5.0764   11.4567    3.1625 C   0  0  0  0  0  0  0  0  0  0  0  0
    5.5737   11.6488    1.7604 C   0  0  0  0  0  0  0  0  0  0  0  0
    6.1257   10.4835    0.9941 O   0  0  0  0  0  0  0  0  0  0  0  0
    5.4908   10.0684   -0.3000 O   0  0  0  0  0  0  0  0  0  0  0  0
    6.1924    9.0965   -1.2018 C   0  0  0  0  0  2  0  0  0  0  0  0
    5.5189   13.0064    1.1248 C   0  0  0  0  0  0  0  0  0  0  0  0
    6.3133   14.1388    1.7052 C   0  0  0  0  0  0  0  0  0  0  0  0
    6.3884   15.4505    0.9816 O   0  0  0  0  0  0  0  0  0  0  0  0
    7.0325   13.9592    3.0092 C   0  0  0  0  0  2  0  0  0  0  0  0
    7.9044   15.0573    3.5422 O   0  0  0  0  0  0  0  0  0  0  0  0
    8.9989   14.7395    4.5174 C   0  0  0  0  0  3  0  0  0  0  0  0
    9.9983   13.6669    4.1998 O   0  0  0  0  0  0  0  0  0  0  0  0
   10.4431   12.7154    5.2706 C   0  0  0  0  0  0  0  0  0  0  0  0
    9.6121   11.5094    5.5949 C   0  0  0  0  0  0  0  0  0  0  0  0
   10.2780   10.2053    5.9205 C   0  0  0  0  0  3  0  0  0  0  0  0
    9.6641    8.9152    5.4637 C   0  0  0  0  0  0  0  0  0  0  0  0
   10.0927    8.2990    4.1651 C   0  0  0  0  0  0  0  0  0  0  0  0
   11.5093    7.8402    3.9840 C   0  0  0  0  0  0  0  0  0  0  0  0
   12.4084    8.5473    3.0136 C   0  0  0  0  0  3  0  0  0  0  0  0
   13.7919    8.0273    2.7573 C   0  0  0  0  0  3  0  0  0  0  0  0
   14.0045    6.9135    1.7753 C   0  0  0  0  0  0  0  0  0  0  0  0
   14.0879    7.2131    0.3079 C   0  0  0  0  0  0  0  0  0  0  0  0
   15.0502    8.2491   -0.1926 C   0  0  0  0  0  3  0  0  0  0  0  0
   16.4891    7.8897   -0.4176 C   0  0  0  0  0  0  0  0  0  0  0  0
   17.2567    8.5321   -1.5348 C   0  0  0  0  0  3  0  0  0  0  0  0
   17.9076    7.6806   -2.5842 C   0  0  0  0  0  0  0  0  0  0  0  0
   17.2013    6.4655   -3.1084 C   0  0  0  0  0  0  0  0  0  0  0  0
   17.0583    6.2608   -4.5874 C   0  0  0  0  0  3  0  0  0  0  0  0
   18.2717    6.2865   -5.4689 O   0  0  0  0  0  0  0  0  0  0  0  0
   19.3871    5.3105   -5.2383 C   0  0  0  0  0  3  0  0  0  0  0  0
   20.6438    5.4016   -6.0522 C   0  0  0  0  0  3  0  0  0  0  0  0
   21.3717    4.1520   -6.4505 C   0  0  0  0  0  0  0  0  0  0  0  0
  1  2  1  0
  2  3  1  0
  2  4  1  0
  4  5  1  0
  5  6  1  0
  6  7  1  0
  7  8  1  0
  7  9  1  0
  9 10  1  0
 10 11  1  0
 11 12  1  0
 12 13  1  0
 12 14  1  0
 14 15  1  0
 16 15  1  0
 16 17  1  0
 17 18  1  0
 18 19  1  0
 19 20  1  0
 20 21  1  0
 16 22  1  0
 22 23  1  0
 23 24  1  0
 24 25  1  0
 25 26  1  0
 26 27  1  0
 27 28  1  0
 28 29  1  0
 29 30  1  0
 31 30  1  0
 31 32  1  0
 32 33  1  0
 33 34  1  0
 31 35  1  0
 35 36  1  0
 36 37  1  0
 36 38  1  0
 38 39  1  0
 39 40  1  0
 40 41  1  0
 41 42  1  0
 42 43  1  0
 43 44  1  0
 44 45  1  0
 45 46  1  0
 46 47  1  0
 47 48  1  0
 48 49  1  0
 49 50  1  0
 50 51  1  0
 51 52  1  0
 52 53  1  0
 53 54  1  0
 54 55  1  0
 55 56  1  0
 56 57  1  0
 57 58  1  0
 58 59  1  0
 59 60  1  0
 60 61  1  0
 28  6  1  0
 27 19  1  0
M  RAD  8   9   2  14   2  17   2  24   2  34   3  38   3  40   2  44   2
M  RAD  7  48   2  49   2  52   2  54   2  57   2  59   2  60   2
M  END
>  <docking_score>  (1) 
30.756

$$$$
