
     RDKit          3D

 37 41  0  0  0  0  0  0  0  0999 V2000
    4.3026    6.4359    3.8341 C   0  0  0  0  0  0  0  0  0  0  0  0
    4.4101    6.5472    5.2134 O   0  0  0  0  0  0  0  0  0  0  0  0
    4.1646    7.7857    5.8499 C   0  0  0  0  0  0  0  0  0  0  0  0
    3.6149    7.6911    7.2359 C   0  0  0  0  0  0  0  0  0  0  0  0
    3.3048    8.7175    8.0325 C   0  0  0  0  0  0  0  0  0  0  0  0
    3.6367    9.7461    7.2063 C   0  0  0  0  0  0  0  0  0  0  0  0
    4.0169    9.6452    6.2452 C   0  0  0  0  0  0  0  0  0  0  0  0
    4.4080    8.9910    5.2509 C   0  0  0  0  0  0  0  0  0  0  0  0
    4.6079   10.4095    4.7818 C   0  0  0  0  0  0  0  0  0  0  0  0
    4.2380   11.4904    5.9307 C   0  0  2  0  0  0  0  0  0  0  0  0
    3.4522   12.5095    5.0853 C   0  0  0  0  0  0  0  0  0  0  0  0
    4.5063   13.2889    4.3462 C   0  0  0  0  0  0  0  0  0  0  0  0
    4.3672   13.6295    3.0807 C   0  0  0  0  0  0  0  0  0  0  0  0
    3.1100   13.2166    2.3742 C   0  0  0  0  0  0  0  0  0  0  0  0
    5.6211   12.1580    6.0951 C   0  0  0  0  0  0  0  0  0  0  0  0
    3.6824   11.3582    7.1092 O   0  0  0  0  0  0  0  0  0  0  0  0
    3.1773   11.1252    8.3848 C   0  0  0  0  0  0  0  0  0  0  0  0
    2.9439    9.7957    8.9584 C   0  0  0  0  0  0  0  0  0  0  0  0
    2.4333    9.7829   10.2369 N   0  0  0  0  0  0  0  0  0  0  0  0
    2.8965    9.9623   11.3514 N   0  0  0  0  0  0  0  0  0  0  0  0
    4.1770   10.2667   11.8339 C   0  0  2  0  0  0  0  0  0  0  0  0
    5.2480    9.5075   11.0923 C   0  0  0  0  0  0  0  0  0  0  0  0
    4.3076    9.8603   13.3342 C   0  0  0  0  0  0  0  0  0  0  0  0
    4.6516   11.1485   14.0749 C   0  0  0  0  0  0  0  0  0  0  0  0
    5.8789   11.5155   13.7081 C   0  0  0  0  0  0  0  0  0  0  0  0
    5.8279   11.8873   12.2408 C   0  0  0  0  0  0  0  0  0  0  0  0
    4.5537   11.7162   11.8078 C   0  0  0  0  0  0  0  0  0  0  0  0
    3.7993   12.7843   11.4366 N   0  0  0  0  0  0  0  0  0  0  0  0
    3.4747   14.0177   11.8976 C   0  0  0  0  0  0  0  0  0  0  0  0
    3.0063   14.4920   13.0103 C   0  0  0  0  0  0  0  0  0  0  0  0
    2.6484   13.8220   14.2182 C   0  0  0  0  0  0  0  0  0  0  0  0
    2.5728   12.3968   14.1787 O   0  0  0  0  0  0  0  0  0  0  0  0
    2.4094   14.5407   15.3037 C   0  0  0  0  0  0  0  0  0  0  0  0
    2.6394   14.0190   16.6814 C   0  0  0  0  0  0  0  0  0  0  0  0
    2.9157   12.7618   17.0772 C   0  0  0  0  0  0  0  0  0  0  0  0
    3.6534   11.7964   16.1973 C   0  0  0  0  0  0  0  0  0  0  0  0
    3.6844   11.7462   14.8822 C   0  0  0  0  0  0  0  0  0  0  0  0
  1  2  1  0
  2  3  1  0
  3  4  2  0
  4  5  1  0
  5  6  2  0
  6  7  1  0
  7  8  2  0
  8  9  1  0
  9 10  1  0
 10 11  1  0
 11 12  1  0
 12 13  2  3
 13 14  1  0
 10 15  1  1
 10 16  1  0
 16 17  1  0
 17 18  2  3
 18 19  1  0
 19 20  2  3
 20 21  1  0
 21 22  1  6
 21 23  1  0
 23 24  1  0
 24 25  2  0
 25 26  1  0
 26 27  2  0
 27 28  1  0
 28 29  1  0
 29 30  2  3
 30 31  1  0
 31 32  1  0
 31 33  2  0
 33 34  1  0
 34 35  2  0
 35 36  1  0
 36 37  2  0
  8  3  1  0
 18  5  1  0
 27 21  1  0
 37 24  1  0
 37 32  1  0
M  END
>  <docking_score>  (1) 
-4.2370000000000001

$$$$

     RDKit          3D

 37 41  0  0  0  0  0  0  0  0999 V2000
    7.1159   16.0731    5.6094 C   0  0  0  0  0  0  0  0  0  0  0  0
    6.8255   15.1153    4.6478 O   0  0  0  0  0  0  0  0  0  0  0  0
    5.9412   14.0526    4.9444 C   0  0  0  0  0  0  0  0  0  0  0  0
    5.2270   14.1650    6.2519 C   0  0  0  0  0  0  0  0  0  0  0  0
    4.3475   13.2901    6.7472 C   0  0  0  0  0  0  0  0  0  0  0  0
    4.3517   12.3777    5.7382 C   0  0  0  0  0  0  0  0  0  0  0  0
    4.9192   12.4445    4.8710 C   0  0  0  0  0  0  0  0  0  0  0  0
    5.7447   12.9918    4.1037 C   0  0  0  0  0  0  0  0  0  0  0  0
    5.3814   11.7515    3.3279 C   0  0  0  0  0  0  0  0  0  0  0  0
    4.2459   10.8726    4.0785 C   0  0  2  0  0  0  0  0  0  0  0  0
    4.8357    9.4640    3.8821 C   0  0  0  0  0  0  0  0  0  0  0  0
    5.3813    9.0847    5.2325 C   0  0  0  0  0  0  0  0  0  0  0  0
    5.2412    7.8721    5.7292 C   0  0  0  0  0  0  0  0  0  0  0  0
    4.5113    6.8532    4.9050 C   0  0  0  0  0  0  0  0  0  0  0  0
    3.1334   10.9430    3.0093 C   0  0  0  0  0  0  0  0  0  0  0  0
    3.7057   10.9737    5.2672 O   0  0  0  0  0  0  0  0  0  0  0  0
    3.1110   11.2047    6.5039 C   0  0  0  0  0  0  0  0  0  0  0  0
    3.3751   12.3732    7.3501 C   0  0  0  0  0  0  0  0  0  0  0  0
    2.6859   12.4103    8.5413 N   0  0  0  0  0  0  0  0  0  0  0  0
    3.0001   12.3755    9.7200 N   0  0  0  0  0  0  0  0  0  0  0  0
    4.2241   12.2809   10.3967 C   0  0  2  0  0  0  0  0  0  0  0  0
    5.2435   13.2448    9.8441 C   0  0  0  0  0  0  0  0  0  0  0  0
    4.8322   10.8541   10.2315 C   0  0  0  0  0  0  0  0  0  0  0  0
    4.9788   10.3091   11.6485 C   0  0  0  0  0  0  0  0  0  0  0  0
    5.9242   11.0186   12.2635 C   0  0  0  0  0  0  0  0  0  0  0  0
    5.4079   12.4338   12.4197 C   0  0  0  0  0  0  0  0  0  0  0  0
    4.1651   12.4900   11.8788 C   0  0  0  0  0  0  0  0  0  0  0  0
    3.0764   12.6986   12.6654 N   0  0  0  0  0  0  0  0  0  0  0  0
    2.5480   12.2355   13.8254 C   0  0  0  0  0  0  0  0  0  0  0  0
    2.2594   11.0650   14.3042 C   0  0  0  0  0  0  0  0  0  0  0  0
    2.4143    9.7700   13.7256 C   0  0  0  0  0  0  0  0  0  0  0  0
    2.7297    9.7079   12.3344 O   0  0  0  0  0  0  0  0  0  0  0  0
    2.2639    8.7022   14.4932 C   0  0  0  0  0  0  0  0  0  0  0  0
    2.9656    7.4140   14.2268 C   0  0  0  0  0  0  0  0  0  0  0  0
    3.6693    7.0399   13.1413 C   0  0  0  0  0  0  0  0  0  0  0  0
    4.4021    8.0335   12.2891 C   0  0  0  0  0  0  0  0  0  0  0  0
    4.1168    9.3018   12.0808 C   0  0  0  0  0  0  0  0  0  0  0  0
  1  2  1  0
  2  3  1  0
  3  4  2  0
  4  5  1  0
  5  6  2  0
  6  7  1  0
  7  8  2  0
  8  9  1  0
  9 10  1  0
 10 11  1  0
 11 12  1  0
 12 13  2  3
 13 14  1  0
 10 15  1  6
 10 16  1  0
 16 17  1  0
 17 18  2  3
 18 19  1  0
 19 20  2  3
 20 21  1  0
 21 22  1  6
 21 23  1  0
 23 24  1  0
 24 25  2  0
 25 26  1  0
 26 27  2  0
 27 28  1  0
 28 29  1  0
 29 30  2  3
 30 31  1  0
 31 32  1  0
 31 33  2  0
 33 34  1  0
 34 35  2  0
 35 36  1  0
 36 37  2  0
  8  3  1  0
 18  5  1  0
 27 21  1  0
 37 24  1  0
 37 32  1  0
M  END
>  <docking_score>  (2) 
-3.7890000000000001

$$$$
