
     RDKit          3D

 27 26  0  0  0  0  0  0  0  0999 V2000
   19.8301   -1.5373   -0.9555 C   0  0  0  0  0  0  0  0  0  0  0  0
   19.2833   -1.1642   -2.3196 C   0  0  0  0  0  0  0  0  0  0  0  0
   20.3419   -1.3544   -3.3974 C   0  0  0  0  0  0  0  0  0  0  0  0
   18.0580   -2.0105   -2.6160 C   0  0  0  0  0  3  0  0  0  0  0  0
   17.2161   -1.2753   -3.6339 C   0  0  0  0  0  0  0  0  0  0  0  0
   15.7755   -1.5519   -3.3453 C   0  0  0  0  0  0  0  0  0  0  0  0
   14.9579   -1.8066   -4.5840 C   0  0  1  0  0  0  0  0  0  0  0  0
   13.7254   -0.9107   -4.5191 C   0  0  0  0  0  0  0  0  0  0  0  0
   15.7375   -1.4020   -5.7836 C   0  0  0  0  0  3  0  0  0  0  0  0
   15.8095   -2.3679   -6.8971 C   0  0  0  0  0  0  0  0  0  0  0  0
   14.8398   -3.4783   -6.8953 C   0  0  0  0  0  0  0  0  0  0  0  0
   14.7128   -4.2714   -8.1262 C   0  0  2  0  0  0  0  0  0  0  0  0
   13.9499   -5.5386   -8.0587 C   0  0  0  0  0  0  0  0  0  0  0  0
   16.0722   -4.5174   -8.7398 C   0  0  0  0  0  3  0  0  0  0  0  0
   16.5483   -5.8872   -8.3378 C   0  0  0  0  0  0  0  0  0  0  0  0
   17.8892   -5.7876   -7.7395 C   0  0  0  0  0  0  0  0  0  0  0  0
   18.9104   -5.2655   -8.3718 C   0  0  0  0  0  0  0  0  0  0  0  0
   20.2305   -5.1992   -7.7059 C   0  0  0  0  0  0  0  0  0  0  0  0
   20.0817   -4.5658   -6.3625 C   0  0  2  0  0  0  0  0  0  0  0  0
   21.3542   -3.9702   -5.8237 C   0  0  0  0  0  0  0  0  0  0  0  0
   19.3553   -5.2859   -5.4733 O   0  0  0  0  0  0  0  0  0  0  0  0
   19.6076   -4.9926   -4.1735 C   0  0  0  0  0  0  0  0  0  0  0  0
   18.6097   -5.4610   -3.1848 C   0  0  0  0  0  0  0  0  0  0  0  0
   17.7079   -6.5727   -3.5909 C   0  0  2  0  0  0  0  0  0  0  0  0
   18.4795   -7.4588   -4.5919 C   0  0  0  0  0  0  0  0  0  0  0  0
   16.3308   -5.8319   -4.5675 S   0  0  0  0  0  0  0  0  0  0  0  0
   14.8217   -6.7382   -4.1098 C   0  0  0  0  0  0  0  0  0  0  0  0
  1  2  1  0
  2  3  1  0
  2  4  1  0
  4  5  1  0
  5  6  1  0
  6  7  1  0
  7  8  1  1
  7  9  1  0
  9 10  1  0
 10 11  1  0
 11 12  1  0
 12 13  1  1
 12 14  1  0
 14 15  1  0
 15 16  1  0
 16 17  2  3
 17 18  1  0
 18 19  1  0
 19 20  1  1
 19 21  1  0
 21 22  1  0
 22 23  1  0
 23 24  1  0
 24 25  1  6
 24 26  1  0
 26 27  1  0
M  RAD  3   4   2   9   2  14   2
M  END
>  <docking_score>  (1) 
-2.7320000000000002

$$$$

     RDKit          3D

 27 26  0  0  0  0  0  0  0  0999 V2000
    3.0199    7.2190    4.6422 C   0  0  0  0  0  0  0  0  0  0  0  0
    2.9840    7.3023    3.1287 C   0  0  0  0  0  0  0  0  0  0  0  0
    2.2576    8.5607    2.6731 C   0  0  0  0  0  0  0  0  0  0  0  0
    4.4043    7.2791    2.5924 C   0  0  0  0  0  3  0  0  0  0  0  0
    4.9948    8.6594    2.7703 C   0  0  0  0  0  0  0  0  0  0  0  0
    5.1895    8.9061    4.2319 C   0  0  0  0  0  0  0  0  0  0  0  0
    5.2348   10.3686    4.5884 C   0  0  1  0  0  0  0  0  0  0  0  0
    6.1833   11.0554    3.6113 C   0  0  0  0  0  0  0  0  0  0  0  0
    3.8880   10.9675    4.3942 C   0  0  0  0  0  3  0  0  0  0  0  0
    3.0586   11.1645    5.5990 C   0  0  0  0  0  0  0  0  0  0  0  0
    3.7416   11.6116    6.8266 C   0  0  0  0  0  0  0  0  0  0  0  0
    3.8918   10.6349    7.9146 C   0  0  2  0  0  0  0  0  0  0  0  0
    4.5461    9.3440    7.6018 C   0  0  0  0  0  0  0  0  0  0  0  0
    2.5637   10.3911    8.5940 C   0  0  0  0  0  3  0  0  0  0  0  0
    2.4769   11.2582    9.8209 C   0  0  0  0  0  0  0  0  0  0  0  0
    3.6230   12.1810    9.8550 C   0  0  0  0  0  0  0  0  0  0  0  0
    4.6689   11.9840   10.6181 C   0  0  0  0  0  0  0  0  0  0  0  0
    5.7848   12.9561   10.5998 C   0  0  0  0  0  0  0  0  0  0  0  0
    5.7589   13.7708   11.8503 C   0  0  2  0  0  0  0  0  0  0  0  0
    4.6647   14.8033   11.8840 C   0  0  0  0  0  0  0  0  0  0  0  0
    6.9733   14.1973   12.2746 O   0  0  0  0  0  0  0  0  0  0  0  0
    7.8847   14.3711   11.2855 C   0  0  0  0  0  0  0  0  0  0  0  0
    9.2906   14.0462   11.6180 C   0  0  0  0  0  0  0  0  0  0  0  0
    9.7485   14.3135   13.0083 C   0  0  2  0  0  0  0  0  0  0  0  0
    9.3876   15.7758   13.3464 C   0  0  0  0  0  0  0  0  0  0  0  0
   11.5914   14.2641   12.9969 S   0  0  0  0  0  0  0  0  0  0  0  0
   12.0824   12.9007   14.0964 C   0  0  0  0  0  0  0  0  0  0  0  0
  1  2  1  0
  2  3  1  0
  2  4  1  0
  4  5  1  0
  5  6  1  0
  6  7  1  0
  7  8  1  6
  7  9  1  0
  9 10  1  0
 10 11  1  0
 11 12  1  0
 12 13  1  6
 12 14  1  0
 14 15  1  0
 15 16  1  0
 16 17  2  3
 17 18  1  0
 18 19  1  0
 19 20  1  6
 19 21  1  0
 21 22  1  0
 22 23  1  0
 23 24  1  0
 24 25  1  6
 24 26  1  0
 26 27  1  0
M  RAD  3   4   2   9   2  14   2
M  END
>  <docking_score>  (2) 
-1.6639999999999999

$$$$
