
     RDKit          3D

 30 30  0  0  0  0  0  0  0  0999 V2000
    4.3513    8.3168   12.2319 C   0  0  0  0  0  0  0  0  0  0  0  0
    4.9592    9.4089   11.3788 C   0  0  0  0  0  0  0  0  0  0  0  0
    6.3780    9.6581   11.8233 C   0  0  0  0  0  0  0  0  0  0  0  0
    4.0984   10.6501   11.4852 C   0  0  0  0  0  0  0  0  0  0  0  0
    3.5120   10.9750   10.1448 C   0  0  0  0  0  0  0  0  0  0  0  0
    4.3826   11.9372    9.3617 C   0  0  0  0  0  0  0  0  0  0  0  0
    4.5679   13.2398   10.0760 C   0  0  1  0  0  0  0  0  0  0  0  0
    6.0222   13.5545   10.3488 C   0  0  0  0  0  0  0  0  0  0  0  0
    3.9387   14.3902    9.3141 C   0  0  0  0  0  3  0  0  0  0  0  0
    4.9958   15.0406    8.4470 C   0  0  0  0  0  0  0  0  0  0  0  0
    4.4946   15.0871    7.0310 C   0  0  0  0  0  0  0  0  0  0  0  0
    5.5793   14.6700    6.0651 C   0  0  1  0  0  0  0  0  0  0  0  0
    6.7980   14.3150    6.8898 C   0  0  0  0  0  0  0  0  0  0  0  0
    5.1354   13.4237    5.3062 C   0  0  0  0  0  3  0  0  0  0  0  0
    5.5391   12.1767    6.0587 C   0  0  0  0  0  0  0  0  0  0  0  0
    5.7434   11.0757    5.0741 C   0  0  1  0  0  0  0  0  0  0  0  0
    7.1701   10.8292    4.7050 C   0  0  0  0  0  0  0  0  0  0  0  0
    5.1157    9.7706    5.4846 C   0  0  1  0  0  0  0  0  0  0  0  0
    3.8384   10.1266    6.2546 C   0  0  0  0  0  0  0  0  0  0  0  0
    3.4219    9.0144    7.1781 C   0  0  0  0  0  3  0  0  0  0  0  0
    4.4599    8.1503    7.4329 O   0  0  0  0  0  0  0  0  0  0  0  0
    2.2702    8.2844    6.5115 C   0  0  0  0  0  0  0  0  0  0  0  0
    2.8210    7.6570    5.2476 C   0  0  0  0  0  0  0  0  0  0  0  0
    3.7248    6.5261    5.6523 C   0  0  1  0  0  0  0  0  0  0  0  0
    3.2838    5.3262    5.1481 O   0  0  0  0  0  0  0  0  0  0  0  0
    5.0133    6.8114    5.2159 O   0  0  0  0  0  0  0  0  0  0  0  0
    4.9058    7.6261    4.1600 O   0  0  0  0  0  0  0  0  0  0  0  0
    4.6627    8.9820    4.3001 C   0  0  0  0  0  0  0  0  0  0  0  0
    4.0403    9.5829    3.4068 N   0  0  0  0  0  4  0  0  0  0  0  0
    3.3374   10.2078    2.6018 N   0  0  0  0  0  2  0  0  0  0  0  0
  1  2  1  0
  2  3  1  0
  2  4  1  0
  4  5  1  0
  5  6  1  0
  6  7  1  0
  7  8  1  6
  7  9  1  0
  9 10  1  0
 10 11  1  0
 11 12  1  0
 12 13  1  1
 12 14  1  0
 14 15  1  0
 15 16  1  0
 16 17  1  1
 16 18  1  0
 18 19  1  1
 19 20  1  0
 20 21  1  0
 20 22  1  0
 22 23  1  0
 23 24  1  0
 24 25  1  6
 24 26  1  0
 26 27  1  0
 27 28  1  0
 28 29  2  0
 29 30  2  0
 28 18  1  0
M  CHG  2  29   1  30  -1
M  RAD  3   9   2  14   2  20   2
M  END
>  <docking_score>  (1) 
-3.2589999999999999

$$$$

     RDKit          3D

 30 30  0  0  0  0  0  0  0  0999 V2000
    5.9056   12.9981    4.1128 C   0  0  0  0  0  0  0  0  0  0  0  0
    6.8594   11.9918    4.7190 C   0  0  0  0  0  0  0  0  0  0  0  0
    7.7624   11.4478    3.6414 C   0  0  0  0  0  0  0  0  0  0  0  0
    6.0561   10.9027    5.3982 C   0  0  0  0  0  0  0  0  0  0  0  0
    6.0901    9.6562    4.5667 C   0  0  0  0  0  0  0  0  0  0  0  0
    5.8128    8.4152    5.3912 C   0  0  0  0  0  0  0  0  0  0  0  0
    4.4740    7.8203    5.0829 C   0  0  1  0  0  0  0  0  0  0  0  0
    4.5672    6.6051    4.1869 C   0  0  0  0  0  0  0  0  0  0  0  0
    3.7189    7.4567    6.3468 C   0  0  0  0  0  3  0  0  0  0  0  0
    2.8692    8.6371    6.7673 C   0  0  0  0  0  0  0  0  0  0  0  0
    3.0395    8.8501    8.2451 C   0  0  0  0  0  0  0  0  0  0  0  0
    4.1681    9.8164    8.5204 C   0  0  1  0  0  0  0  0  0  0  0  0
    3.6980   11.1871    8.0829 C   0  0  0  0  0  0  0  0  0  0  0  0
    4.4469    9.8621   10.0193 C   0  0  0  0  0  3  0  0  0  0  0  0
    3.2695   10.4576   10.7564 C   0  0  0  0  0  0  0  0  0  0  0  0
    3.7445   10.9624   12.0766 C   0  0  1  0  0  0  0  0  0  0  0  0
    4.2551    9.9039   12.9993 C   0  0  0  0  0  0  0  0  0  0  0  0
    4.7750   12.0547   11.9734 C   0  0  1  0  0  0  0  0  0  0  0  0
    4.1221   13.1937   11.1813 C   0  0  0  0  0  0  0  0  0  0  0  0
    5.1527   14.0753   10.5299 C   0  0  0  0  0  3  0  0  0  0  0  0
    6.3721   13.4479   10.4372 O   0  0  0  0  0  0  0  0  0  0  0  0
    5.2623   15.3347   11.3697 C   0  0  0  0  0  0  0  0  0  0  0  0
    5.7985   14.9149   12.7227 C   0  0  0  0  0  0  0  0  0  0  0  0
    7.2388   14.5232   12.5447 C   0  0  1  0  0  0  0  0  0  0  0  0
    8.0701   15.3084   13.3067 O   0  0  0  0  0  0  0  0  0  0  0  0
    7.3759   13.1795   12.8733 O   0  0  0  0  0  0  0  0  0  0  0  0
    6.3959   12.8768   13.7325 O   0  0  0  0  0  0  0  0  0  0  0  0
    5.0996   12.6323   13.3118 C   0  0  0  0  0  0  0  0  0  0  0  0
    4.1533   12.9009   14.0726 N   0  0  0  0  0  4  0  0  0  0  0  0
    3.1720   13.2450   14.7443 N   0  0  0  0  0  2  0  0  0  0  0  0
  1  2  1  0
  2  3  1  0
  2  4  1  0
  4  5  1  0
  5  6  1  0
  6  7  1  0
  7  8  1  6
  7  9  1  0
  9 10  1  0
 10 11  1  0
 11 12  1  0
 12 13  1  1
 12 14  1  0
 14 15  1  0
 15 16  1  0
 16 17  1  1
 16 18  1  0
 18 19  1  6
 19 20  1  0
 20 21  1  0
 20 22  1  0
 22 23  1  0
 23 24  1  0
 24 25  1  1
 24 26  1  0
 26 27  1  0
 27 28  1  0
 28 29  2  0
 29 30  2  0
 28 18  1  0
M  CHG  2  29   1  30  -1
M  RAD  3   9   2  14   2  20   2
M  END
>  <docking_score>  (2) 
-2.7930000000000001

$$$$

     RDKit          3D

 30 30  0  0  0  0  0  0  0  0999 V2000
    4.9388   12.0502   10.6904 C   0  0  0  0  0  0  0  0  0  0  0  0
    4.9480   13.4463   11.2743 C   0  0  0  0  0  0  0  0  0  0  0  0
    3.5771   14.0566   11.1306 C   0  0  0  0  0  0  0  0  0  0  0  0
    6.0154   14.2624   10.5761 C   0  0  0  0  0  0  0  0  0  0  0  0
    5.9688   13.9995    9.1013 C   0  0  0  0  0  0  0  0  0  0  0  0
    5.8273   15.2782    8.3002 C   0  0  0  0  0  0  0  0  0  0  0  0
    5.7295   15.0150    6.8297 C   0  0  1  0  0  0  0  0  0  0  0  0
    4.2990   14.9133    6.3484 C   0  0  0  0  0  0  0  0  0  0  0  0
    6.4578   16.0723    6.0224 C   0  0  0  0  0  3  0  0  0  0  0  0
    6.2998   15.7599    4.5494 C   0  0  0  0  0  0  0  0  0  0  0  0
    7.6577   15.4834    3.9681 C   0  0  0  0  0  0  0  0  0  0  0  0
    7.5797   14.4011    2.9164 C   0  0  1  0  0  0  0  0  0  0  0  0
    8.3442   14.8979    1.7081 C   0  0  0  0  0  0  0  0  0  0  0  0
    8.2652   13.1393    3.4307 C   0  0  0  0  0  3  0  0  0  0  0  0
    7.4137   11.9236    3.1458 C   0  0  0  0  0  0  0  0  0  0  0  0
    7.1337   11.2296    4.4356 C   0  0  1  0  0  0  0  0  0  0  0  0
    6.6499   12.1243    5.5301 C   0  0  0  0  0  0  0  0  0  0  0  0
    6.1875   10.0662    4.3056 C   0  0  1  0  0  0  0  0  0  0  0  0
    5.4204    9.9808    5.6305 C   0  0  0  0  0  0  0  0  0  0  0  0
    4.8777    8.5976    5.8665 C   0  0  0  0  0  3  0  0  0  0  0  0
    5.5218    7.6607    5.0942 O   0  0  0  0  0  0  0  0  0  0  0  0
    3.3963    8.6340    5.5378 C   0  0  0  0  0  0  0  0  0  0  0  0
    3.2825    8.9312    4.0569 C   0  0  0  0  0  0  0  0  0  0  0  0
    3.7464    7.7139    3.3070 C   0  0  1  0  0  0  0  0  0  0  0  0
    2.7503    7.2073    2.5073 O   0  0  0  0  0  0  0  0  0  0  0  0
    4.8669    8.0554    2.5586 O   0  0  0  0  0  0  0  0  0  0  0  0
    4.7967    9.3685    2.3116 O   0  0  0  0  0  0  0  0  0  0  0  0
    5.1521   10.3142    3.2585 C   0  0  0  0  0  0  0  0  0  0  0  0
    4.5919   11.4244    3.2481 N   0  0  0  0  0  4  0  0  0  0  0  0
    3.9951   12.5042    3.3499 N   0  0  0  0  0  2  0  0  0  0  0  0
  1  2  1  0
  2  3  1  0
  2  4  1  0
  4  5  1  0
  5  6  1  0
  6  7  1  0
  7  8  1  6
  7  9  1  0
  9 10  1  0
 10 11  1  0
 11 12  1  0
 12 13  1  6
 12 14  1  0
 14 15  1  0
 15 16  1  0
 16 17  1  1
 16 18  1  0
 18 19  1  1
 19 20  1  0
 20 21  1  0
 20 22  1  0
 22 23  1  0
 23 24  1  0
 24 25  1  6
 24 26  1  0
 26 27  1  0
 27 28  1  0
 28 29  2  0
 29 30  2  0
 28 18  1  0
M  CHG  2  29   1  30  -1
M  RAD  3   9   2  14   2  20   2
M  END
>  <docking_score>  (3) 
-2.6589999999999998

$$$$
