
     RDKit          3D

 12 11  0  0  0  0  0  0  0  0999 V2000
   18.3992    5.8074   -5.8030 O   0  0  0  0  0  0  0  0  0  0  0  0
   19.1646    6.5284   -4.9100 C   0  0  0  0  0  0  0  0  0  0  0  0
   18.3152    6.9960   -3.7485 C   0  0  0  0  0  3  0  0  0  0  0  0
   19.0610    6.8869   -2.5061 N   0  0  0  0  0  0  0  0  0  0  0  0
   19.8215    8.0598   -2.2570 C   0  0  2  0  0  0  0  0  0  0  0  0
   21.2360    7.7400   -1.8359 C   0  0  0  0  0  0  0  0  0  0  0  0
   19.2592    9.0578   -1.5485 O   0  0  0  0  0  0  0  0  0  0  0  0
   20.0454    9.9293   -0.8820 C   0  0  1  0  0  0  0  0  0  0  0  0
   20.4632   11.0580   -1.5262 O   0  0  0  0  0  0  0  0  0  0  0  0
   19.5246   10.3020    0.4887 C   0  0  0  0  0  0  0  0  0  0  0  0
   20.4282    9.7377    1.4219 O   0  0  0  0  0  0  0  0  0  0  0  0
   18.2704    9.7346    0.7044 O   0  0  0  0  0  0  0  0  0  0  0  0
  1  2  1  0
  2  3  1  0
  3  4  1  0
  4  5  1  0
  5  6  1  1
  5  7  1  0
  7  8  1  0
  8  9  1  6
  8 10  1  0
 10 11  1  0
 10 12  1  0
M  RAD  1   3   2
M  END
>  <docking_score>  (1) 
-3.5

$$$$

     RDKit          3D

 12 11  0  0  0  0  0  0  0  0999 V2000
   16.5554   -4.2751   -1.7092 O   0  0  0  0  0  0  0  0  0  0  0  0
   17.1573   -5.1910   -2.5470 C   0  0  0  0  0  0  0  0  0  0  0  0
   16.6229   -5.0450   -3.9550 C   0  0  0  0  0  3  0  0  0  0  0  0
   15.9204   -3.7808   -4.0960 N   0  0  0  0  0  0  0  0  0  0  0  0
   14.8252   -3.8971   -4.9923 C   0  0  2  0  0  0  0  0  0  0  0  0
   15.1680   -4.7346   -6.2012 C   0  0  0  0  0  0  0  0  0  0  0  0
   14.1073   -2.7955   -5.2838 O   0  0  0  0  0  0  0  0  0  0  0  0
   14.7205   -1.5943   -5.3412 C   0  0  1  0  0  0  0  0  0  0  0  0
   15.2343   -1.1788   -6.5357 O   0  0  0  0  0  0  0  0  0  0  0  0
   13.9225   -0.4673   -4.7231 C   0  0  0  0  0  0  0  0  0  0  0  0
   14.3742   -0.3500   -3.3859 O   0  0  0  0  0  0  0  0  0  0  0  0
   12.5669   -0.7885   -4.6946 O   0  0  0  0  0  0  0  0  0  0  0  0
  1  2  1  0
  2  3  1  0
  3  4  1  0
  4  5  1  0
  5  6  1  6
  5  7  1  0
  7  8  1  0
  8  9  1  6
  8 10  1  0
 10 11  1  0
 10 12  1  0
M  RAD  1   3   2
M  END
>  <docking_score>  (2) 
-2.9849999999999999

$$$$

     RDKit          3D

 12 11  0  0  0  0  0  0  0  0999 V2000
   16.9022   -5.2253   -6.5887 O   0  0  0  0  0  0  0  0  0  0  0  0
   15.6223   -5.5969   -6.9446 C   0  0  0  0  0  0  0  0  0  0  0  0
   14.6656   -4.4417   -6.7455 C   0  0  0  0  0  3  0  0  0  0  0  0
   15.3984   -3.2414   -6.3793 N   0  0  0  0  0  0  0  0  0  0  0  0
   14.7746   -2.5672   -5.2964 C   0  0  2  0  0  0  0  0  0  0  0  0
   14.7015   -1.0761   -5.5231 C   0  0  0  0  0  0  0  0  0  0  0  0
   15.1171   -2.9066   -4.0389 O   0  0  0  0  0  0  0  0  0  0  0  0
   16.4210   -3.0213   -3.7093 C   0  0  1  0  0  0  0  0  0  0  0  0
   17.0389   -1.9632   -3.1075 O   0  0  0  0  0  0  0  0  0  0  0  0
   16.7543   -4.2887   -2.9533 C   0  0  0  0  0  0  0  0  0  0  0  0
   15.8477   -5.2742   -3.4145 O   0  0  0  0  0  0  0  0  0  0  0  0
   16.5420   -4.1117   -1.5876 O   0  0  0  0  0  0  0  0  0  0  0  0
  1  2  1  0
  2  3  1  0
  3  4  1  0
  4  5  1  0
  5  6  1  6
  5  7  1  0
  7  8  1  0
  8  9  1  1
  8 10  1  0
 10 11  1  0
 10 12  1  0
M  RAD  1   3   2
M  END
>  <docking_score>  (3) 
-2.9710000000000001

$$$$
