
     RDKit          3D

 49 56  0  0  0  0  0  0  0  0999 V2000
    6.0220   -2.8895   -5.6545 C   0  0  0  0  0  0  0  0  0  0  0  0
    6.9732   -1.7312   -5.7147 O   0  0  0  0  0  0  0  0  0  0  0  0
    6.4463   -0.3351   -5.8668 C   0  0  0  0  0  0  0  0  0  0  0  0
    5.3832   -0.0413   -6.8835 C   0  0  0  0  0  0  0  0  0  0  0  0
    4.8563    1.3549   -7.0355 C   0  0  0  0  0  0  0  0  0  0  0  0
    5.3924    2.4572   -6.1710 C   0  0  0  0  0  0  0  0  0  0  0  0
    6.4555    2.1634   -5.1543 C   0  0  0  0  0  0  0  0  0  0  0  0
    6.9824    0.7672   -5.0023 C   0  0  0  0  0  0  0  0  0  0  0  0
    8.0454    0.4734   -3.9856 C   0  0  0  0  0  0  0  0  0  0  0  0
    9.0893    1.5041   -3.6726 C   0  0  0  0  0  0  0  0  0  0  0  0
   10.5251    1.2478   -4.0229 C   0  0  0  0  0  0  0  0  0  0  0  0
   11.2537    2.5489   -4.1849 C   0  0  0  0  0  0  0  0  0  0  0  0
   12.6236    3.0658   -4.5107 C   0  0  0  0  0  0  0  0  0  0  0  0
   13.9937    2.5568   -4.8478 C   0  0  0  0  0  0  0  0  0  0  0  0
   14.7230    1.2600   -5.0386 C   0  0  0  0  0  0  0  0  0  0  0  0
   14.4702   -0.2179   -4.9936 C   0  0  0  0  0  0  0  0  0  0  0  0
   15.8993   -0.5110   -5.3427 C   0  0  0  0  0  0  0  0  0  0  0  0
   16.5647   -1.8436   -5.5184 C   0  0  0  0  0  0  0  0  0  0  0  0
   15.9654   -3.2127   -5.3884 C   0  0  0  0  0  0  0  0  0  0  0  0
   14.5526   -3.5868   -5.0506 C   0  0  0  0  0  0  0  0  0  0  0  0
   13.3903   -2.6846   -4.7595 C   0  0  0  0  0  0  0  0  0  0  0  0
   13.3536   -1.1852   -4.7341 C   0  0  0  0  0  0  0  0  0  0  0  0
   11.8956   -1.1895   -4.3813 N   0  0  0  0  0  0  0  0  0  0  0  0
   10.7786   -0.2286   -4.1004 N   0  0  0  0  0  0  0  0  0  0  0  0
   10.9699   -1.7151   -4.1631 C   0  0  0  0  0  0  0  0  0  0  0  0
   13.7019   -4.8072   -4.8582 C   0  0  0  0  0  0  0  0  0  0  0  0
   13.8112   -6.3026   -4.9011 C   0  0  0  0  0  0  0  0  0  0  0  0
   14.8294   -7.3733   -5.1593 N   0  0  0  0  0  0  0  0  0  0  0  0
   16.2802   -7.5184   -5.5119 C   0  0  0  0  0  0  0  0  0  0  0  0
   17.4845   -6.6700   -5.7940 C   0  0  0  0  0  0  0  0  0  0  0  0
   17.8791   -5.2250   -5.8736 C   0  0  0  0  0  0  0  0  0  0  0  0
   17.2791   -3.8596   -5.7134 N   0  0  0  0  0  0  0  0  0  0  0  0
   18.0095   -5.5967   -5.9093 C   0  0  0  0  0  0  0  0  0  0  0  0
   17.9655   -5.7300   -5.9001 C   0  0  0  0  0  0  0  0  0  0  0  0
   18.6975   -7.4990   -6.0967 C   0  0  0  0  0  0  0  0  0  0  0  0
   19.8416   -6.5663   -6.3633 C   0  0  0  0  0  0  0  0  0  0  0  0
   19.3359   -5.1610   -6.2254 C   0  0  0  0  0  0  0  0  0  0  0  0
   20.1447   -3.9110   -6.4074 C   0  0  0  0  0  0  0  0  0  0  0  0
   21.3607   -3.5411   -7.2040 C   0  0  0  0  0  0  0  0  0  0  0  0
   21.2887   -2.1432   -6.6648 C   0  0  0  0  0  0  0  0  0  0  0  0
   20.0728   -2.5131   -5.8683 C   0  0  0  0  0  0  0  0  0  0  0  0
   19.1620   -1.7862   -4.9238 C   0  0  0  0  0  0  0  0  0  0  0  0
   19.5329   -0.4207   -4.4260 C   0  0  0  0  0  0  0  0  0  0  0  0
   19.9038    0.9449   -3.9282 C   0  0  0  0  0  0  0  0  0  0  0  0
   21.1854    1.5835   -4.3749 O   0  0  0  0  0  0  0  0  0  0  0  0
   21.3214    3.0773   -4.3677 O   0  0  0  0  0  0  0  0  0  0  0  0
   20.1581    3.9383   -4.7621 O   0  0  0  0  0  0  0  0  0  0  0  0
   20.1873    5.4120   -4.4839 C   0  0  0  0  0  0  0  0  0  0  0  0
   19.7683    6.3842   -5.5465 C   0  0  0  0  0  0  0  0  0  0  0  0
  1  2  1  0
  2  3  1  0
  3  4  2  0
  4  5  1  0
  5  6  2  0
  6  7  1  0
  7  8  2  0
  8  9  1  0
  9 10  1  0
 10 11  1  0
 11 12  2  0
 12 13  2  0
 13 14  1  0
 14 15  2  3
 15 16  1  0
 16 17  2  0
 17 18  1  0
 18 19  1  0
 19 20  1  0
 20 21  1  0
 21 22  2  0
 22 23  1  0
 23 24  1  0
 24 25  1  0
 25 26  2  0
 26 27  1  0
 27 28  1  0
 28 29  2  3
 29 30  1  0
 30 31  2  0
 31 32  1  0
 32 33  1  0
 33 34  1  0
 34 35  2  0
 35 36  1  0
 36 37  2  0
 37 38  1  0
 38 39  2  0
 39 40  1  0
 40 41  2  0
 41 42  1  0
 42 43  2  0
 43 44  2  0
 44 45  1  0
 45 46  1  0
 46 47  1  0
 47 48  1  0
 48 49  2  0
  8  3  1  0
 24 11  1  0
 22 16  1  0
 32 19  1  0
 26 20  1  0
 35 30  1  0
 37 31  1  0
 41 38  1  0
M  END
>  <docking_score>  (1) 
36.137

$$$$

     RDKit          3D

 49 56  0  0  0  0  0  0  0  0999 V2000
    3.8904    6.7050    1.1897 C   0  0  0  0  0  0  0  0  0  0  0  0
    2.9666    7.4617    2.0974 O   0  0  0  0  0  0  0  0  0  0  0  0
    3.3928    8.7803    2.6714 C   0  0  0  0  0  0  0  0  0  0  0  0
    3.4742    9.9910    1.7896 C   0  0  0  0  0  0  0  0  0  0  0  0
    3.9004   11.3096    2.3637 C   0  0  0  0  0  0  0  0  0  0  0  0
    4.2453   11.4175    3.8195 C   0  0  0  0  0  0  0  0  0  0  0  0
    4.1639   10.2068    4.7013 C   0  0  0  0  0  0  0  0  0  0  0  0
    3.7377    8.8882    4.1272 C   0  0  0  0  0  0  0  0  0  0  0  0
    3.6563    7.6775    5.0090 C   0  0  0  0  0  0  0  0  0  0  0  0
    4.8899    7.1588    5.6865 C   0  0  0  0  0  0  0  0  0  0  0  0
    5.7087    8.0691    6.5531 C   0  0  0  0  0  0  0  0  0  0  0  0
    7.0856    8.2231    5.9783 C   0  0  0  0  0  0  0  0  0  0  0  0
    8.3783    8.9278    6.2654 C   0  0  0  0  0  0  0  0  0  0  0  0
    8.9819    9.8533    7.2797 C   0  0  0  0  0  0  0  0  0  0  0  0
    8.6141   10.5667    8.5469 C   0  0  0  0  0  0  0  0  0  0  0  0
    7.4467   10.7341    9.4739 C   0  0  0  0  0  0  0  0  0  0  0  0
    8.2361   11.6484   10.3634 C   0  0  0  0  0  0  0  0  0  0  0  0
    7.8000   12.3314   11.6255 C   0  0  0  0  0  0  0  0  0  0  0  0
    6.4668   12.2691   12.3101 C   0  0  0  0  0  0  0  0  0  0  0  0
    5.2403   11.5081   11.9014 C   0  0  0  0  0  0  0  0  0  0  0  0
    5.0443   10.6217   10.7074 C   0  0  0  0  0  0  0  0  0  0  0  0
    6.0262   10.2772    9.6271 C   0  0  0  0  0  0  0  0  0  0  0  0
    5.0172    9.4098    8.9346 N   0  0  0  0  0  0  0  0  0  0  0  0
    4.8918    8.5378    7.7206 N   0  0  0  0  0  0  0  0  0  0  0  0
    4.0252    8.9715    8.8656 C   0  0  0  0  0  0  0  0  0  0  0  0
    3.8334   11.2640   12.3607 C   0  0  0  0  0  0  0  0  0  0  0  0
    2.9042   11.6509   13.4729 C   0  0  0  0  0  0  0  0  0  0  0  0
    2.8876   12.4877   14.7177 N   0  0  0  0  0  0  0  0  0  0  0  0
    3.7913   13.3830   15.5125 C   0  0  0  0  0  0  0  0  0  0  0  0
    5.1925   13.9177   15.4856 C   0  0  0  0  0  0  0  0  0  0  0  0
    6.4355   13.8418   14.6495 C   0  0  0  0  0  0  0  0  0  0  0  0
    6.9387   13.1907   13.3953 N   0  0  0  0  0  0  0  0  0  0  0  0
    6.2758   13.9994   14.9752 C   0  0  0  0  0  0  0  0  0  0  0  0
    6.1559   14.0019   15.0487 C   0  0  0  0  0  0  0  0  0  0  0  0
    5.4727   14.8186   16.6519 C   0  0  0  0  0  0  0  0  0  0  0  0
    6.8888   15.2993   16.5365 C   0  0  0  0  0  0  0  0  0  0  0  0
    7.4839   14.6957   15.2990 C   0  0  0  0  0  0  0  0  0  0  0  0
    8.8819   14.9085   14.7987 C   0  0  0  0  0  0  0  0  0  0  0  0
   10.2540   14.7356   15.3796 C   0  0  0  0  0  0  0  0  0  0  0  0
   10.8591   15.2094   14.0912 C   0  0  0  0  0  0  0  0  0  0  0  0
    9.4869   15.3822   13.5105 C   0  0  0  0  0  0  0  0  0  0  0  0
    8.9444   15.8394   12.1889 C   0  0  0  0  0  0  0  0  0  0  0  0
    7.4621   15.9307   11.9778 C   0  0  0  0  0  0  0  0  0  0  0  0
    5.9799   16.0221   11.7667 C   0  0  0  0  0  0  0  0  0  0  0  0
    5.0402   15.6563   12.8771 O   0  0  0  0  0  0  0  0  0  0  0  0
    3.5672   15.8928   12.7216 O   0  0  0  0  0  0  0  0  0  0  0  0
    2.6287   14.7284   12.6057 O   0  0  0  0  0  0  0  0  0  0  0  0
    2.5534   13.9503   11.3255 C   0  0  0  0  0  0  0  0  0  0  0  0
    2.2586   14.6560   10.0352 C   0  0  0  0  0  0  0  0  0  0  0  0
  1  2  1  0
  2  3  1  0
  3  4  2  0
  4  5  1  0
  5  6  2  0
  6  7  1  0
  7  8  2  0
  8  9  1  0
  9 10  1  0
 10 11  1  0
 11 12  2  0
 12 13  2  0
 13 14  1  0
 14 15  2  3
 15 16  1  0
 16 17  2  0
 17 18  1  0
 18 19  1  0
 19 20  1  0
 20 21  1  0
 21 22  2  0
 22 23  1  0
 23 24  1  0
 24 25  1  0
 25 26  2  0
 26 27  1  0
 27 28  1  0
 28 29  2  3
 29 30  1  0
 30 31  2  0
 31 32  1  0
 32 33  1  0
 33 34  1  0
 34 35  2  0
 35 36  1  0
 36 37  2  0
 37 38  1  0
 38 39  2  0
 39 40  1  0
 40 41  2  0
 41 42  1  0
 42 43  2  0
 43 44  2  0
 44 45  1  0
 45 46  1  0
 46 47  1  0
 47 48  1  0
 48 49  2  0
  8  3  1  0
 24 11  1  0
 22 16  1  0
 32 19  1  0
 26 20  1  0
 35 30  1  0
 37 31  1  0
 41 38  1  0
M  END
>  <docking_score>  (2) 
38.454999999999998

$$$$
