
     RDKit          3D

 15 15  0  0  0  0  0  0  0  0999 V2000
   16.2588   -2.9437   -7.9229 C   0  0  0  0  0  0  0  0  0  0  0  0
   16.2773   -2.3843   -6.5467 C   0  0  1  0  0  0  0  0  0  0  0  0
   15.2216   -1.3484   -6.4170 C   0  0  0  0  0  0  0  0  0  0  0  0
   14.8489   -0.9457   -5.0510 C   0  0  1  0  0  0  0  0  0  0  0  0
   13.4759   -0.6672   -5.0204 O   0  0  0  0  0  0  0  0  0  0  0  0
   15.1437   -1.9047   -3.9530 C   0  0  2  0  0  0  0  0  0  0  0  0
   16.4387   -1.7244   -3.4159 O   0  0  0  0  0  0  0  0  0  0  0  0
   15.1768   -3.3128   -4.5639 C   0  0  1  0  0  0  0  0  0  0  0  0
   14.0265   -3.3926   -5.3710 O   0  0  0  0  0  0  0  0  0  0  0  0
   16.4099   -3.3259   -5.4393 C   0  0  1  0  0  0  0  0  0  0  0  0
   16.8773   -4.6227   -5.6338 N   0  0  0  0  0  0  0  0  0  0  0  0
   16.5438   -5.6415   -4.7143 C   0  0  0  0  0  3  0  0  0  0  0  0
   17.8177   -6.3745   -4.3784 C   0  0  0  0  0  0  0  0  0  0  0  0
   18.4679   -6.1257   -3.2539 C   0  0  0  0  0  0  0  0  0  0  0  0
   17.9382   -5.1149   -2.3141 C   0  0  0  0  0  2  0  0  0  0  0  0
  2  1  1  6
  2  3  1  0
  3  4  1  0
  4  5  1  6
  4  6  1  0
  6  7  1  6
  6  8  1  0
  8  9  1  6
  8 10  1  0
 10 11  1  6
 11 12  1  0
 12 13  1  0
 13 14  2  3
 14 15  1  0
 10  2  1  0
M  RAD  2  12   2  15   3
M  END
>  <docking_score>  (1) 
-4.3410000000000002

$$$$

     RDKit          3D

 15 15  0  0  0  0  0  0  0  0999 V2000
   14.8854   -1.4164   -5.2132 C   0  0  0  0  0  0  0  0  0  0  0  0
   15.0161   -2.8176   -4.7368 C   0  0  1  0  0  0  0  0  0  0  0  0
   14.4016   -3.7384   -5.7261 C   0  0  0  0  0  0  0  0  0  0  0  0
   14.7469   -5.1648   -5.6116 C   0  0  1  0  0  0  0  0  0  0  0  0
   14.8121   -5.7189   -6.8970 O   0  0  0  0  0  0  0  0  0  0  0  0
   16.0098   -5.5059   -4.9040 C   0  0  2  0  0  0  0  0  0  0  0  0
   15.8191   -5.6672   -3.5127 O   0  0  0  0  0  0  0  0  0  0  0  0
   16.9486   -4.2969   -5.0225 C   0  0  1  0  0  0  0  0  0  0  0  0
   16.8999   -3.9227   -6.3784 O   0  0  0  0  0  0  0  0  0  0  0  0
   16.3028   -3.2213   -4.1782 C   0  0  1  0  0  0  0  0  0  0  0  0
   17.2399   -2.2853   -3.7493 N   0  0  0  0  0  0  0  0  0  0  0  0
   17.3527   -1.9733   -2.3765 C   0  0  0  0  0  3  0  0  0  0  0  0
   18.7000   -1.3278   -2.1744 C   0  0  0  0  0  0  0  0  0  0  0  0
   19.7101   -2.0107   -1.6620 C   0  0  0  0  0  0  0  0  0  0  0  0
   19.5148   -3.4260   -1.2821 C   0  0  0  0  0  2  0  0  0  0  0  0
  2  1  1  6
  2  3  1  0
  3  4  1  0
  4  5  1  6
  4  6  1  0
  6  7  1  1
  6  8  1  0
  8  9  1  6
  8 10  1  0
 10 11  1  6
 11 12  1  0
 12 13  1  0
 13 14  2  3
 14 15  1  0
 10  2  1  0
M  RAD  2  12   2  15   3
M  END
>  <docking_score>  (2) 
-4.0540000000000003

$$$$

     RDKit          3D

 15 15  0  0  0  0  0  0  0  0999 V2000
   18.1489   -5.9964   -3.1719 C   0  0  0  0  0  0  0  0  0  0  0  0
   17.0552   -5.0307   -3.4520 C   0  0  1  0  0  0  0  0  0  0  0  0
   16.9984   -4.0163   -2.3694 C   0  0  0  0  0  0  0  0  0  0  0  0
   16.2350   -2.7887   -2.6472 C   0  0  1  0  0  0  0  0  0  0  0  0
   16.8683   -1.7098   -2.0159 O   0  0  0  0  0  0  0  0  0  0  0  0
   16.0268   -2.4234   -4.0738 C   0  0  2  0  0  0  0  0  0  0  0  0
   14.8583   -3.0084   -4.6129 O   0  0  0  0  0  0  0  0  0  0  0  0
   17.1732   -3.0454   -4.8836 C   0  0  1  0  0  0  0  0  0  0  0  0
   18.3440   -2.7306   -4.1687 O   0  0  0  0  0  0  0  0  0  0  0  0
   16.9278   -4.5363   -4.8194 C   0  0  1  0  0  0  0  0  0  0  0  0
   17.5233   -5.1927   -5.8930 N   0  0  0  0  0  0  0  0  0  0  0  0
   16.7942   -6.1521   -6.6296 C   0  0  0  0  0  3  0  0  0  0  0  0
   17.7789   -7.1855   -7.1147 C   0  0  0  0  0  0  0  0  0  0  0  0
   17.8439   -8.3795   -6.5495 C   0  0  0  0  0  0  0  0  0  0  0  0
   16.9387   -8.7046   -5.4268 C   0  0  0  0  0  2  0  0  0  0  0  0
  2  1  1  6
  2  3  1  0
  3  4  1  0
  4  5  1  1
  4  6  1  0
  6  7  1  6
  6  8  1  0
  8  9  1  1
  8 10  1  0
 10 11  1  6
 11 12  1  0
 12 13  1  0
 13 14  2  3
 14 15  1  0
 10  2  1  0
M  RAD  2  12   2  15   3
M  END
>  <docking_score>  (3) 
-3.8809999999999998

$$$$
