
     RDKit          3D

 37 38  0  0  0  0  0  0  0  0999 V2000
   20.5078    0.2753   -7.1184 C   0  0  0  0  0  0  0  0  0  0  0  0
   21.2537   -0.7630   -7.6944 O   0  0  0  0  0  0  0  0  0  0  0  0
   21.3385   -2.0034   -7.0762 C   0  0  0  0  0  0  0  0  0  0  0  0
   20.9314   -3.1112   -7.6940 C   0  0  0  0  0  0  0  0  0  0  0  0
   21.0015   -4.4130   -7.0912 C   0  0  0  0  0  0  0  0  0  0  0  0
   20.0672   -5.3620   -7.3250 C   0  0  0  0  0  0  0  0  0  0  0  0
   20.2127   -6.6015   -6.6973 C   0  0  0  0  0  0  0  0  0  0  0  0
   19.9156   -7.2383   -5.6563 C   0  0  0  0  0  0  0  0  0  0  0  0
   20.3765   -8.6934   -5.4760 C   0  0  0  0  0  0  0  0  0  0  0  0
   21.3571   -8.9263   -6.4356 O   0  0  0  0  0  0  0  0  0  0  0  0
   20.9833   -9.8769   -7.3553 C   0  0  0  0  0  0  0  0  0  0  0  0
   21.3558   -9.4014   -8.7336 C   0  0  0  0  0  0  0  0  0  0  0  0
   19.1334   -6.7447   -4.5007 C   0  0  2  0  0  0  0  0  0  0  0  0
   19.1884   -7.4757   -3.2795 N   0  0  0  0  0  0  0  0  0  0  0  0
   17.7821   -6.2514   -4.9231 C   0  0  0  0  0  0  0  0  0  0  0  0
   18.1681   -4.9250   -4.6291 N   0  0  0  0  0  3  0  0  0  0  0  0
   19.3371   -5.2602   -4.2528 C   0  0  0  0  0  0  0  0  0  0  0  0
   20.5264   -4.5315   -3.7436 C   0  0  0  0  0  0  0  0  0  0  0  0
   21.0066   -5.2106   -2.1854 Cl  0  0  0  0  0  0  0  0  0  0  0  0
   18.9257   -5.0474   -8.2281 C   0  0  0  0  0  2  0  0  0  0  0  0
   18.1049   -4.0839   -7.6485 O   0  0  0  0  0  0  0  0  0  0  0  0
   18.2436   -2.9472   -8.2959 O   0  0  0  0  0  0  0  0  0  0  0  0
   17.3850   -2.0064   -7.8658 N   0  0  0  0  0  3  0  0  0  0  0  0
   16.5357   -2.5962   -6.9640 N   0  0  0  0  0  4  0  0  0  0  0  0
   15.8085   -3.0868   -6.2056 C   0  0  0  0  0  0  0  0  0  0  0  0
   14.9581   -3.6659   -5.2872 O   0  0  0  0  0  0  0  0  0  0  0  0
   13.6544   -3.2291   -5.2597 N   0  0  0  0  0  2  0  0  0  0  0  0
   13.6121   -2.0141   -4.5476 C   0  0  0  0  0  0  0  0  0  0  0  0
   12.3942   -1.3161   -4.4193 N   0  0  0  0  0  1  0  0  0  0  0  0
   14.6429   -1.5605   -4.0353 N   0  0  0  0  0  4  0  0  0  0  0  0
   15.6163   -1.2119   -3.3943 N   0  0  0  0  0  2  0  0  0  0  0  0
   18.0875   -0.9311   -7.1552 C   0  0  0  0  0  0  0  0  0  0  0  0
   18.5357   -1.5072   -5.8578 C   0  0  0  0  0  0  0  0  0  0  0  0
   19.5765   -1.0025   -5.2348 C   0  0  0  0  0  0  0  0  0  0  0  0
   20.3528    0.0832   -5.6899 N   0  0  0  0  0  4  0  0  0  0  0  0
   20.8722    0.8298   -4.8548 N   0  0  0  0  0  4  0  0  0  0  0  0
   21.2193    1.7665   -4.1117 N   0  0  0  0  0  2  0  0  0  0  0  0
  1  2  1  0
  2  3  1  0
  3  4  2  3
  4  5  1  0
  5  6  2  3
  6  7  1  0
  7  8  2  3
  8  9  1  0
  9 10  1  0
 10 11  1  0
 11 12  1  0
  8 13  1  0
 13 14  1  1
 13 15  1  0
 15 16  1  0
 16 17  2  0
 17 18  1  0
 18 19  1  0
  6 20  1  0
 20 21  1  0
 21 22  1  0
 22 23  1  0
 23 24  1  0
 24 25  3  0
 25 26  1  0
 26 27  1  0
 27 28  1  0
 28 29  1  0
 28 30  2  0
 30 31  2  0
 23 32  1  0
 32 33  1  0
 33 34  2  3
 34 35  1  0
 35 36  2  0
 36 37  2  0
 35  1  1  0
 17 13  1  0
M  CHG  8  16   1  23   1  24   1  27   1  29   1  30   1  31   1  35   1
M  CHG  2  36   1  37  -1
M  RAD  6  16   2  20   3  23   2  27   3  29   2  31   3
M  END
>  <docking_score>  (1) 
-0.21199999999999999

$$$$

     RDKit          3D

 37 38  0  0  0  0  0  0  0  0999 V2000
    4.7779    7.3767    4.8709 C   0  0  0  0  0  0  0  0  0  0  0  0
    3.9127    7.8221    5.8805 O   0  0  0  0  0  0  0  0  0  0  0  0
    4.4015    8.5194    6.9773 C   0  0  0  0  0  0  0  0  0  0  0  0
    3.9738    9.7491    7.2592 C   0  0  0  0  0  0  0  0  0  0  0  0
    4.4527   10.5047    8.3829 C   0  0  0  0  0  0  0  0  0  0  0  0
    4.5977   11.8481    8.3334 C   0  0  0  0  0  0  0  0  0  0  0  0
    5.0700   12.5043    9.4727 C   0  0  0  0  0  0  0  0  0  0  0  0
    4.7806   13.3978   10.3066 C   0  0  0  0  0  0  0  0  0  0  0  0
    5.7490   13.7378   11.4506 C   0  0  0  0  0  0  0  0  0  0  0  0
    4.9911   13.7902   12.6166 O   0  0  0  0  0  0  0  0  0  0  0  0
    5.7128   14.2358   13.6981 C   0  0  0  0  0  0  0  0  0  0  0  0
    4.7665   14.8058   14.7201 C   0  0  0  0  0  0  0  0  0  0  0  0
    3.5541   14.2259   10.3378 C   0  0  2  0  0  0  0  0  0  0  0  0
    3.3531   15.1029   11.4419 N   0  0  0  0  0  0  0  0  0  0  0  0
    2.3571   13.4517    9.8736 C   0  0  0  0  0  0  0  0  0  0  0  0
    2.2945   14.2393    8.7030 N   0  0  0  0  0  3  0  0  0  0  0  0
    3.3048   14.9445    9.0232 C   0  0  0  0  0  0  0  0  0  0  0  0
    4.0377   16.0750    8.3989 C   0  0  0  0  0  0  0  0  0  0  0  0
    5.1839   15.4456    7.2118 Cl  0  0  0  0  0  0  0  0  0  0  0  0
    4.2588   12.5672    7.0742 C   0  0  0  0  0  2  0  0  0  0  0  0
    5.1559   12.2227    6.0670 O   0  0  0  0  0  0  0  0  0  0  0  0
    4.5448   11.4692    5.1786 O   0  0  0  0  0  0  0  0  0  0  0  0
    5.3209   11.2039    4.1134 N   0  0  0  0  0  3  0  0  0  0  0  0
    6.4747   11.9346    4.2444 N   0  0  0  0  0  4  0  0  0  0  0  0
    7.4506   12.5533    4.3422 C   0  0  0  0  0  0  0  0  0  0  0  0
    8.6203   13.2724    4.4706 O   0  0  0  0  0  0  0  0  0  0  0  0
    9.1990   13.7611    3.3228 N   0  0  0  0  0  2  0  0  0  0  0  0
    8.2365   14.5281    2.6367 C   0  0  0  0  0  0  0  0  0  0  0  0
    8.0477   14.3443    1.2519 N   0  0  0  0  0  1  0  0  0  0  0  0
    7.5578   15.3617    3.2492 N   0  0  0  0  0  4  0  0  0  0  0  0
    6.7821   16.0505    3.8847 N   0  0  0  0  0  2  0  0  0  0  0  0
    5.7096    9.7889    4.0786 C   0  0  0  0  0  0  0  0  0  0  0  0
    6.6862    9.5936    5.1850 C   0  0  0  0  0  0  0  0  0  0  0  0
    6.8374    8.4087    5.7318 C   0  0  0  0  0  0  0  0  0  0  0  0
    6.1355    7.2431    5.3613 N   0  0  0  0  0  4  0  0  0  0  0  0
    6.7031    6.1519    5.4686 N   0  0  0  0  0  4  0  0  0  0  0  0
    7.2643    5.0528    5.3036 N   0  0  0  0  0  2  0  0  0  0  0  0
  1  2  1  0
  2  3  1  0
  3  4  2  3
  4  5  1  0
  5  6  2  3
  6  7  1  0
  7  8  2  3
  8  9  1  0
  9 10  1  0
 10 11  1  0
 11 12  1  0
  8 13  1  0
 13 14  1  1
 13 15  1  0
 15 16  1  0
 16 17  2  0
 17 18  1  0
 18 19  1  0
  6 20  1  0
 20 21  1  0
 21 22  1  0
 22 23  1  0
 23 24  1  0
 24 25  3  0
 25 26  1  0
 26 27  1  0
 27 28  1  0
 28 29  1  0
 28 30  2  0
 30 31  2  0
 23 32  1  0
 32 33  1  0
 33 34  2  3
 34 35  1  0
 35 36  2  0
 36 37  2  0
 35  1  1  0
 17 13  1  0
M  CHG  8  16   1  23   1  24   1  27   1  29   1  30   1  31   1  35   1
M  CHG  2  36   1  37  -1
M  RAD  6  16   2  20   3  23   2  27   3  29   2  31   3
M  END
>  <docking_score>  (2) 
-0.017999999999999999

$$$$
