
     RDKit          3D

 19 19  0  0  0  0  0  0  0  0999 V2000
   14.4324   -5.6884   -5.1450 C   0  0  0  0  0  0  0  0  0  0  0  0
   15.6975   -6.1729   -4.4632 C   0  0  1  0  0  0  0  0  0  0  0  0
   16.3097   -7.3085   -5.2312 C   0  0  0  0  0  0  0  0  0  0  0  0
   16.8955   -6.7825   -6.5422 C   0  0  2  0  0  0  0  0  0  0  0  0
   17.4167   -7.8272   -7.2825 O   0  0  0  0  0  0  0  0  0  0  0  0
   18.0269   -5.8479   -6.1605 C   0  0  2  0  0  0  0  0  0  0  0  0
   18.8917   -6.4676   -5.2353 O   0  0  0  0  0  0  0  0  0  0  0  0
   17.3620   -4.6252   -5.5163 C   0  0  1  0  0  0  0  0  0  0  0  0
   16.4421   -4.1574   -6.4656 O   0  0  0  0  0  0  0  0  0  0  0  0
   16.6996   -5.0805   -4.2528 C   0  0  1  0  0  0  0  0  0  0  0  0
   16.1209   -3.8966   -3.5451 C   0  0  0  0  0  3  0  0  0  0  0  0
   16.8683   -3.6571   -2.2747 C   0  0  0  0  0  3  0  0  0  0  0  0
   18.2629   -4.2082   -2.2819 C   0  0  0  0  0  0  0  0  0  0  0  0
   19.3105   -3.1691   -2.0047 C   0  0  1  0  0  0  0  0  0  0  0  0
   19.9718   -3.3438   -0.6608 C   0  0  0  0  0  1  0  0  0  0  0  0
   20.3021   -3.2983   -2.9771 O   0  0  0  0  0  0  0  0  0  0  0  0
   18.7134   -1.7965   -2.1545 C   0  0  0  0  0  0  0  0  0  0  0  0
   19.3235   -1.0883   -3.3259 C   0  0  0  0  0  3  0  0  0  0  0  0
   18.6365   -1.3826   -4.4989 O   0  0  0  0  0  0  0  0  0  0  0  0
  2  1  1  6
  2  3  1  0
  3  4  1  0
  4  5  1  6
  4  6  1  0
  6  7  1  1
  6  8  1  0
  8  9  1  6
  8 10  1  0
 10 11  1  6
 11 12  1  0
 12 13  1  0
 13 14  1  0
 14 15  1  1
 14 16  1  0
 14 17  1  0
 17 18  1  0
 18 19  1  0
 10  2  1  0
M  RAD  4  11   2  12   2  15   2  18   2
M  END
>  <docking_score>  (1) 
-3.9769999999999999

$$$$

     RDKit          3D

 19 19  0  0  0  0  0  0  0  0999 V2000
   17.9405   -0.9232   -5.6524 C   0  0  0  0  0  0  0  0  0  0  0  0
   17.2532   -2.0463   -4.9000 C   0  0  1  0  0  0  0  0  0  0  0  0
   15.9775   -1.5602   -4.2750 C   0  0  0  0  0  0  0  0  0  0  0  0
   14.9411   -1.2950   -5.3677 C   0  0  2  0  0  0  0  0  0  0  0  0
   13.7785   -0.7976   -4.8089 O   0  0  0  0  0  0  0  0  0  0  0  0
   14.6369   -2.6376   -6.0034 C   0  0  2  0  0  0  0  0  0  0  0  0
   14.3447   -3.5997   -5.0150 O   0  0  0  0  0  0  0  0  0  0  0  0
   15.9065   -3.0391   -6.7643 C   0  0  1  0  0  0  0  0  0  0  0  0
   16.1754   -1.9701   -7.6311 O   0  0  0  0  0  0  0  0  0  0  0  0
   16.9943   -3.2468   -5.7564 C   0  0  1  0  0  0  0  0  0  0  0  0
   18.2254   -3.7338   -6.4528 C   0  0  0  0  0  3  0  0  0  0  0  0
   18.7668   -4.9277   -5.7378 C   0  0  0  0  0  3  0  0  0  0  0  0
   19.7721   -4.5915   -4.6772 C   0  0  0  0  0  0  0  0  0  0  0  0
   19.5464   -5.3341   -3.3920 C   0  0  1  0  0  0  0  0  0  0  0  0
   19.0691   -6.7485   -3.6055 C   0  0  0  0  0  1  0  0  0  0  0  0
   20.7683   -5.4030   -2.7231 O   0  0  0  0  0  0  0  0  0  0  0  0
   18.6012   -4.5560   -2.5178 C   0  0  0  0  0  0  0  0  0  0  0  0
   17.2824   -5.2612   -2.4201 C   0  0  0  0  0  3  0  0  0  0  0  0
   16.2315   -4.3506   -2.3907 O   0  0  0  0  0  0  0  0  0  0  0  0
  2  1  1  6
  2  3  1  0
  3  4  1  0
  4  5  1  1
  4  6  1  0
  6  7  1  1
  6  8  1  0
  8  9  1  6
  8 10  1  0
 10 11  1  6
 11 12  1  0
 12 13  1  0
 13 14  1  0
 14 15  1  6
 14 16  1  0
 14 17  1  0
 17 18  1  0
 18 19  1  0
 10  2  1  0
M  RAD  4  11   2  12   2  15   2  18   2
M  END
>  <docking_score>  (2) 
-3.9550000000000001

$$$$

     RDKit          3D

 19 19  0  0  0  0  0  0  0  0999 V2000
   19.1320   -7.8943   -3.9516 C   0  0  0  0  0  0  0  0  0  0  0  0
   19.4905   -6.4605   -4.2917 C   0  0  1  0  0  0  0  0  0  0  0  0
   20.0072   -6.3647   -5.6983 C   0  0  0  0  0  0  0  0  0  0  0  0
   18.8590   -6.5952   -6.6818 C   0  0  2  0  0  0  0  0  0  0  0  0
   19.3320   -6.5607   -7.9803 O   0  0  0  0  0  0  0  0  0  0  0  0
   17.8921   -5.4434   -6.4878 C   0  0  2  0  0  0  0  0  0  0  0  0
   18.5752   -4.2106   -6.5246 O   0  0  0  0  0  0  0  0  0  0  0  0
   17.2635   -5.6515   -5.1045 C   0  0  1  0  0  0  0  0  0  0  0  0
   16.7183   -6.9431   -5.1331 O   0  0  0  0  0  0  0  0  0  0  0  0
   18.3511   -5.5114   -4.0849 C   0  0  1  0  0  0  0  0  0  0  0  0
   17.7589   -5.6125   -2.7150 C   0  0  0  0  0  3  0  0  0  0  0  0
   17.9788   -4.3325   -1.9780 C   0  0  0  0  0  3  0  0  0  0  0  0
   18.9785   -3.4247   -2.6299 C   0  0  0  0  0  0  0  0  0  0  0  0
   18.4911   -2.0115   -2.7692 C   0  0  1  0  0  0  0  0  0  0  0  0
   19.1185   -1.0714   -1.7709 C   0  0  0  0  0  1  0  0  0  0  0  0
   18.8460   -1.5653   -4.0420 O   0  0  0  0  0  0  0  0  0  0  0  0
   16.9892   -1.9843   -2.6883 C   0  0  0  0  0  0  0  0  0  0  0  0
   16.3947   -1.9309   -4.0630 C   0  0  0  0  0  3  0  0  0  0  0  0
   15.1869   -2.6189   -4.1105 O   0  0  0  0  0  0  0  0  0  0  0  0
  2  1  1  6
  2  3  1  0
  3  4  1  0
  4  5  1  6
  4  6  1  0
  6  7  1  1
  6  8  1  0
  8  9  1  6
  8 10  1  0
 10 11  1  1
 11 12  1  0
 12 13  1  0
 13 14  1  0
 14 15  1  1
 14 16  1  0
 14 17  1  0
 17 18  1  0
 18 19  1  0
 10  2  1  0
M  RAD  4  11   2  12   2  15   2  18   2
M  END
>  <docking_score>  (3) 
-3.7730000000000001

$$$$
