
     RDKit          3D

 73 77  0  0  0  0  0  0  0  0999 V2000
    6.1454    6.7526    5.0722 C   0  0  2  0  0  0  0  0  0  0  0  0
    6.0062    6.3533    3.7548 O   0  0  0  0  0  0  0  0  0  0  0  0
    4.7636    6.8082    3.3030 C   0  0  0  0  0  3  0  0  0  0  0  0
    4.7971    8.1526    2.9397 O   0  0  0  0  0  0  0  0  0  0  0  0
    5.4710    8.3561    1.7344 C   0  0  2  0  0  0  0  0  0  0  0  0
    6.2789    7.1156    1.4029 C   0  0  0  0  0  0  0  0  0  0  0  0
    6.3156    9.4499    1.8861 O   0  0  0  0  0  0  0  0  0  0  0  0
    6.4253   10.1968    0.7109 C   0  0  1  0  0  0  0  0  0  0  0  0
    5.9286    9.4578   -0.3627 O   0  0  0  0  0  0  0  0  0  0  0  0
    5.2890   10.3105   -1.2556 C   0  0  0  0  0  2  0  0  0  0  0  0
    5.7411   11.4016    0.8201 O   0  0  0  0  0  0  0  0  0  0  0  0
    6.6378   12.4002    1.2293 C   0  0  2  0  0  0  0  0  0  0  0  0
    7.4763   11.8089    2.3380 C   0  0  0  0  0  2  0  0  0  0  0  0
    5.9379   13.5306    1.6662 O   0  0  0  0  0  0  0  0  0  0  0  0
    5.0366   13.1071    2.6331 C   0  0  0  0  0  3  0  0  0  0  0  0
    5.2082   13.8615    3.9452 C   0  0  1  0  0  0  0  0  0  0  0  0
    4.0350   14.8010    4.1421 C   0  0  0  0  0  3  0  0  0  0  0  0
    4.3103   15.8245    5.0308 O   0  0  0  0  0  0  0  0  0  0  0  0
    3.7712   15.6192    6.2253 O   0  0  0  0  0  0  0  0  0  0  0  0
    4.8186   15.3616    7.0871 C   0  0  0  0  0  3  0  0  0  0  0  0
    4.4062   14.9535    8.4635 C   0  0  2  0  0  0  0  0  0  0  0  0
    3.0281   14.3885    8.5670 C   0  0  2  0  0  0  0  0  0  0  0  0
    3.0945   13.2547    9.3904 O   0  0  0  0  0  0  0  0  0  0  0  0
    3.1244   13.5752   10.6660 O   0  0  0  0  0  0  0  0  0  0  0  0
    4.7017   16.0309    9.4681 C   0  0  0  0  0  3  0  0  0  0  0  0
    6.1097   16.0749    9.6867 O   0  0  0  0  0  0  0  0  0  0  0  0
    6.7239   15.3876   10.7274 C   0  0  0  0  0  0  0  0  0  0  0  0
    5.9429   14.7515   11.5700 C   0  0  0  0  0  0  0  0  0  0  0  0
    6.4109   13.9377   12.7080 C   0  0  2  0  0  0  0  0  0  0  0  0
    5.2057   13.7080   13.6119 C   0  0  0  0  0  3  0  0  0  0  0  0
    4.8597   12.3676   13.6883 O   0  0  0  0  0  0  0  0  0  0  0  0
    4.6875   11.8476   12.4119 C   0  0  0  0  0  3  0  0  0  0  0  0
    3.5421   11.0432   12.3631 O   0  0  0  0  0  0  0  0  0  0  0  0
    3.8572    9.7640   12.4235 O   0  0  0  0  0  0  0  0  0  0  0  0
    4.2381    9.2672   11.1854 C   0  0  0  0  0  3  0  0  0  0  0  0
    3.4895    9.7790   10.1374 O   0  0  0  0  0  0  0  0  0  0  0  0
    2.5166    8.8774    9.6910 C   0  0  0  0  0  3  0  0  0  0  0  0
    3.0786    7.8580    8.9121 O   0  0  0  0  0  0  0  0  0  0  0  0
    3.0436    8.1633    7.5528 C   0  0  0  0  0  3  0  0  0  0  0  0
    4.3728    8.2459    7.1184 O   0  0  0  0  0  0  0  0  0  0  0  0
    4.4304    8.4672    5.7329 C   0  0  2  0  0  0  0  0  0  0  0  0
    5.8641    8.2109    5.2914 C   0  0  0  0  0  0  0  0  0  0  0  0
    4.2376    9.8491    5.5705 O   0  0  0  0  0  0  0  0  0  0  0  0
    5.1311   10.4505    6.4718 C   0  0  0  0  0  3  0  0  0  0  0  0
    4.2554   11.1942    7.4734 C   0  0  0  0  0  0  0  0  0  0  0  0
    3.7446   12.4182    6.7641 C   0  0  2  0  0  0  0  0  0  0  0  0
    2.4242   12.7146    7.0510 O   0  0  0  0  0  0  0  0  0  0  0  0
    2.3749   14.1044    7.2473 C   0  0  0  0  0  3  0  0  0  0  0  0
    4.0445   12.3978    5.2899 C   0  0  0  0  0  3  0  0  0  0  0  0
    5.2925   12.9667    5.0235 O   0  0  0  0  0  0  0  0  0  0  0  0
    7.3719   14.5826   13.4711 O   0  0  0  0  0  0  0  0  0  0  0  0
    8.6155   14.6284   12.8647 C   0  0  0  0  0  3  0  0  0  0  0  0
    9.6206   14.9980   13.9448 C   0  0  0  0  0  3  0  0  0  0  0  0
   10.0459   13.8493   14.6152 O   0  0  0  0  0  0  0  0  0  0  0  0
   10.7152   13.1129   13.7255 O   0  0  0  0  0  0  0  0  0  0  0  0
   11.8465   12.3850   14.0610 C   0  0  0  0  0  0  0  0  0  0  0  0
   12.5971   11.9592   13.0857 C   0  0  0  0  0  0  0  0  0  0  0  0
   13.4429   10.9918   13.2291 C   0  0  0  0  0  0  0  0  0  0  0  0
   13.5761    9.7010   12.0169 S   0  0  0  0  0  0  0  0  0  0  0  0
   14.9946    9.9262   11.0741 O   0  0  0  0  0  0  0  0  0  0  0  0
   14.7938    9.4495    9.7722 C   0  0  0  0  0  3  0  0  0  0  0  0
   14.4198    8.1132    9.7821 O   0  0  0  0  0  0  0  0  0  0  0  0
   14.7355    7.5575    8.5949 N   0  0  0  0  0  0  0  0  0  0  0  0
   13.5266    7.2182    7.8603 C   0  0  0  0  0  3  0  0  0  0  0  0
   13.9232    6.6810    6.6355 O   0  0  0  0  0  0  0  0  0  0  0  0
   13.3102    5.4552    6.4252 C   0  0  0  0  0  0  0  0  0  0  0  0
   11.9605    5.6861    6.1686 O   0  0  0  0  0  0  0  0  0  0  0  0
   11.1976    4.7367    6.8539 C   0  0  0  0  0  3  0  0  0  0  0  0
   10.0833    4.2872    5.9490 C   0  0  0  0  0  3  0  0  0  0  0  0
    8.9177    4.8994    6.3746 O   0  0  0  0  0  0  0  0  0  0  0  0
    8.2446    5.4963    5.3502 N   0  0  0  0  0  0  0  0  0  0  0  0
    7.2180    6.3083    5.9492 C   0  0  2  0  0  0  0  0  0  0  0  0
    5.9266    5.8299    6.0783 O   0  0  0  0  0  0  0  0  0  0  0  0
  1  2  1  6
  2  3  1  0
  3  4  1  0
  4  5  1  0
  5  6  1  1
  5  7  1  0
  7  8  1  0
  8  9  1  6
  9 10  1  0
  8 11  1  0
 11 12  1  0
 12 13  1  1
 12 14  1  0
 14 15  1  0
 16 15  1  6
 16 17  1  0
 17 18  1  0
 18 19  1  0
 19 20  1  0
 21 20  1  6
 21 22  1  0
 22 23  1  1
 23 24  1  0
 21 25  1  0
 25 26  1  0
 26 27  1  0
 27 28  2  3
 28 29  1  0
 29 30  1  0
 30 31  1  0
 31 32  1  0
 32 33  1  0
 33 34  1  0
 34 35  1  0
 35 36  1  0
 36 37  1  0
 37 38  1  0
 38 39  1  0
 39 40  1  0
 40 41  1  0
 41 42  1  1
 41 43  1  0
 43 44  1  0
 44 45  1  0
 46 45  1  6
 46 47  1  0
 47 48  1  0
 46 49  1  0
 49 50  1  0
 29 51  1  1
 51 52  1  0
 52 53  1  0
 53 54  1  0
 54 55  1  0
 55 56  1  0
 56 57  2  0
 57 58  2  0
 58 59  1  0
 59 60  1  0
 60 61  1  0
 61 62  1  0
 62 63  1  0
 63 64  1  0
 64 65  1  0
 65 66  1  0
 66 67  1  0
 67 68  1  0
 68 69  1  0
 69 70  1  0
 70 71  1  0
 72 71  1  6
 72 73  1  0
 42  1  1  0
 72  1  1  0
 73  1  1  0
 50 16  1  0
 48 22  1  0
M  RAD  8   3   2  10   3  13   3  15   2  17   2  20   2  25   2  30   2
M  RAD  8  32   2  35   2  37   2  39   2  44   2  48   2  49   2  52   2
M  RAD  5  53   2  61   2  64   2  68   2  69   2
M  END
>  <docking_score>  (1) 
129.47900000000001

$$$$
