
     RDKit          3D

 28 29  0  0  0  0  0  0  0  0999 V2000
   19.3919   -0.6372   -4.6472 C   0  0  0  0  0  0  0  0  0  0  0  0
   19.1597   -1.2447   -3.2901 C   0  0  0  0  0  0  0  0  0  0  0  0
   19.6876   -0.7558   -2.2595 O   0  0  0  0  0  0  0  0  0  0  0  0
   18.3568   -2.3617   -3.1334 O   0  0  0  0  0  0  0  0  0  0  0  0
   17.0384   -2.3263   -3.5752 C   0  0  0  0  0  3  0  0  0  0  0  0
   16.0350   -2.0892   -2.5374 C   0  0  0  0  0  0  0  0  0  0  0  0
   15.4447   -1.0151   -2.5360 O   0  0  0  0  0  0  0  0  0  0  0  0
   16.6833   -3.4752   -4.5031 C   0  0  2  0  0  0  0  0  0  0  0  0
   17.8525   -4.4415   -4.4007 C   0  0  0  0  0  0  0  0  0  0  0  0
   17.7323   -5.0709   -3.0109 C   0  0  0  0  0  3  0  0  0  0  0  0
   18.9741   -5.8271   -2.6410 C   0  0  0  0  0  0  0  0  0  0  0  0
   19.7010   -6.1692   -3.9351 C   0  0  0  0  0  0  0  0  0  0  0  0
   19.6186   -7.6664   -4.1140 C   0  0  2  0  0  0  0  0  0  0  0  0
   20.8742   -8.2983   -3.5780 C   0  0  0  0  0  0  0  0  0  0  0  0
   19.5314   -7.9240   -5.5799 C   0  0  0  0  0  0  0  0  0  0  0  0
   18.5576   -8.7090   -6.0142 C   0  0  0  0  0  0  0  0  0  0  0  0
   18.3834   -9.0242   -7.4227 C   0  0  0  0  0  0  0  0  0  0  0  0
   17.9344  -10.1312   -7.7498 O   0  0  0  0  0  0  0  0  0  0  0  0
   18.7504   -8.0054   -8.4326 C   0  0  0  0  0  0  0  0  0  0  0  0
   17.5362   -7.1761   -8.7311 C   0  0  0  0  0  0  0  0  0  0  0  0
   17.8011   -5.7482   -8.2990 C   0  0  0  0  0  0  0  0  0  0  0  0
   17.0892   -5.3830   -7.0293 C   0  0  0  0  0  2  0  0  0  0  0  0
   15.6968   -4.9243   -7.2097 C   0  0  0  0  0  0  0  0  0  0  0  0
   15.3696   -3.5870   -6.6552 C   0  0  2  0  0  0  0  0  0  0  0  0
   15.3846   -2.6223   -7.8519 C   0  0  0  0  0  3  0  0  0  0  0  0
   16.8543   -2.3025   -8.0336 C   0  0  0  0  0  0  0  0  0  0  0  0
   17.5474   -2.7576   -6.7606 C   0  0  0  0  0  0  0  0  0  0  0  0
   16.4163   -2.9501   -5.8278 C   0  0  2  0  0  0  0  0  0  0  0  0
  1  2  1  0
  2  3  2  0
  2  4  1  0
  4  5  1  0
  5  6  1  0
  6  7  2  0
  8  5  1  1
  8  9  1  0
  9 10  1  0
 10 11  1  0
 11 12  1  0
 12 13  1  0
 13 14  1  6
 13 15  1  0
 15 16  2  3
 16 17  1  0
 17 18  2  0
 17 19  1  0
 19 20  1  0
 20 21  1  0
 21 22  1  0
 22 23  1  0
 24 23  1  6
 24 25  1  0
 25 26  1  0
 26 27  1  0
 28 27  1  6
 28  8  1  0
 28 24  1  0
M  RAD  4   5   2  10   2  22   3  25   2
M  END
>  <docking_score>  (1) 
-5.258

$$$$

     RDKit          3D

 28 29  0  0  0  0  0  0  0  0999 V2000
   18.0641   -8.4049   -7.9146 C   0  0  0  0  0  0  0  0  0  0  0  0
   17.5719   -7.5258   -6.7966 C   0  0  0  0  0  0  0  0  0  0  0  0
   17.1700   -8.0170   -5.7117 O   0  0  0  0  0  0  0  0  0  0  0  0
   17.5463   -6.1478   -6.9275 O   0  0  0  0  0  0  0  0  0  0  0  0
   16.4006   -5.4457   -6.5681 C   0  0  0  0  0  3  0  0  0  0  0  0
   15.4276   -5.2413   -7.6412 C   0  0  0  0  0  0  0  0  0  0  0  0
   15.5891   -5.8480   -8.6939 O   0  0  0  0  0  0  0  0  0  0  0  0
   16.6915   -4.1850   -5.7726 C   0  0  2  0  0  0  0  0  0  0  0  0
   17.9551   -3.6098   -6.3921 C   0  0  0  0  0  0  0  0  0  0  0  0
   17.5215   -3.0651   -7.7550 C   0  0  0  0  0  3  0  0  0  0  0  0
   18.7048   -2.7291   -8.6139 C   0  0  0  0  0  0  0  0  0  0  0  0
   19.8974   -2.5294   -7.6877 C   0  0  0  0  0  0  0  0  0  0  0  0
   20.2619   -1.0646   -7.7346 C   0  0  2  0  0  0  0  0  0  0  0  0
   21.3685   -0.8622   -8.7332 C   0  0  0  0  0  0  0  0  0  0  0  0
   20.7576   -0.6974   -6.3773 C   0  0  0  0  0  0  0  0  0  0  0  0
   20.2267    0.3637   -5.7899 C   0  0  0  0  0  0  0  0  0  0  0  0
   20.6384    0.8076   -4.4681 C   0  0  0  0  0  0  0  0  0  0  0  0
   20.6251    2.0163   -4.1981 O   0  0  0  0  0  0  0  0  0  0  0  0
   21.0647   -0.2055   -3.4759 C   0  0  0  0  0  0  0  0  0  0  0  0
   19.8633   -0.6240   -2.6807 C   0  0  0  0  0  0  0  0  0  0  0  0
   19.5929   -2.0923   -2.9394 C   0  0  0  0  0  0  0  0  0  0  0  0
   18.4166   -2.3168   -3.8439 C   0  0  0  0  0  2  0  0  0  0  0  0
   17.1062   -2.3375   -3.1623 C   0  0  0  0  0  0  0  0  0  0  0  0
   16.2815   -3.5549   -3.3633 C   0  0  2  0  0  0  0  0  0  0  0  0
   16.4685   -4.4016   -2.0940 C   0  0  0  0  0  3  0  0  0  0  0  0
   17.7786   -5.1228   -2.3363 C   0  0  0  0  0  0  0  0  0  0  0  0
   18.0764   -4.9736   -3.8185 C   0  0  0  0  0  0  0  0  0  0  0  0
   16.7789   -4.5217   -4.3651 C   0  0  2  0  0  0  0  0  0  0  0  0
  1  2  1  0
  2  3  2  0
  2  4  1  0
  4  5  1  0
  5  6  1  0
  6  7  2  0
  8  5  1  6
  8  9  1  0
  9 10  1  0
 10 11  1  0
 11 12  1  0
 12 13  1  0
 13 14  1  6
 13 15  1  0
 15 16  2  3
 16 17  1  0
 17 18  2  0
 17 19  1  0
 19 20  1  0
 20 21  1  0
 21 22  1  0
 22 23  1  0
 24 23  1  1
 24 25  1  0
 25 26  1  0
 26 27  1  0
 28 27  1  1
 28  8  1  0
 28 24  1  0
M  RAD  4   5   2  10   2  22   3  25   2
M  END
>  <docking_score>  (2) 
-5.0679999999999996

$$$$

     RDKit          3D

 28 29  0  0  0  0  0  0  0  0999 V2000
    9.2013   13.3819    3.5360 C   0  0  0  0  0  0  0  0  0  0  0  0
    7.9239   12.5916    3.6278 C   0  0  0  0  0  0  0  0  0  0  0  0
    7.9166   11.3455    3.4629 O   0  0  0  0  0  0  0  0  0  0  0  0
    6.7158   13.2119    3.8969 O   0  0  0  0  0  0  0  0  0  0  0  0
    5.6677   12.4698    4.4312 C   0  0  0  0  0  3  0  0  0  0  0  0
    4.3386   12.8010    3.9173 C   0  0  0  0  0  0  0  0  0  0  0  0
    4.2165   13.0080    2.7154 O   0  0  0  0  0  0  0  0  0  0  0  0
    5.7167   12.3622    5.9455 C   0  0  2  0  0  0  0  0  0  0  0  0
    4.8639   11.1497    6.2831 C   0  0  0  0  0  0  0  0  0  0  0  0
    5.6845    9.9419    5.8248 C   0  0  0  0  0  3  0  0  0  0  0  0
    4.8603    8.6884    5.8182 C   0  0  0  0  0  0  0  0  0  0  0  0
    3.6804    8.9146    6.7545 C   0  0  0  0  0  0  0  0  0  0  0  0
    3.8754    8.0113    7.9488 C   0  0  2  0  0  0  0  0  0  0  0  0
    3.0974    6.7409    7.7402 C   0  0  0  0  0  0  0  0  0  0  0  0
    3.3237    8.7314    9.1320 C   0  0  0  0  0  0  0  0  0  0  0  0
    4.0918    8.8399   10.2049 C   0  0  0  0  0  0  0  0  0  0  0  0
    3.6506    9.5218   11.4107 C   0  0  0  0  0  0  0  0  0  0  0  0
    4.0486    9.1277   12.5155 O   0  0  0  0  0  0  0  0  0  0  0  0
    2.7316   10.6757   11.2823 C   0  0  0  0  0  0  0  0  0  0  0  0
    3.5538   11.9267   11.1831 C   0  0  0  0  0  0  0  0  0  0  0  0
    3.3221   12.5578    9.8252 C   0  0  0  0  0  0  0  0  0  0  0  0
    4.4745   12.3558    8.8854 C   0  0  0  0  0  2  0  0  0  0  0  0
    5.5577   13.3524    9.0103 C   0  0  0  0  0  0  0  0  0  0  0  0
    5.9153   14.0909    7.7736 C   0  0  2  0  0  0  0  0  0  0  0  0
    5.2293   15.4615    7.8911 C   0  0  0  0  0  3  0  0  0  0  0  0
    3.8085   15.1887    7.4417 C   0  0  0  0  0  0  0  0  0  0  0  0
    3.8357   13.8377    6.7475 C   0  0  0  0  0  0  0  0  0  0  0  0
    5.2810   13.6178    6.5248 C   0  0  2  0  0  0  0  0  0  0  0  0
  1  2  1  0
  2  3  2  0
  2  4  1  0
  4  5  1  0
  5  6  1  0
  6  7  2  0
  8  5  1  6
  8  9  1  0
  9 10  1  0
 10 11  1  0
 11 12  1  0
 12 13  1  0
 13 14  1  6
 13 15  1  0
 15 16  2  3
 16 17  1  0
 17 18  2  0
 17 19  1  0
 19 20  1  0
 20 21  1  0
 21 22  1  0
 22 23  1  0
 24 23  1  1
 24 25  1  0
 25 26  1  0
 26 27  1  0
 28 27  1  1
 28  8  1  0
 28 24  1  0
M  RAD  4   5   2  10   2  22   3  25   2
M  END
>  <docking_score>  (3) 
-4.5679999999999996

$$$$
