
     RDKit          3D

 29 31  0  0  0  0  0  0  0  0999 V2000
   12.8683   -0.3210   -4.1319 C   0  0  0  0  0  0  0  0  0  0  0  0
   13.6251    0.6506   -4.8004 O   0  0  0  0  0  0  0  0  0  0  0  0
   14.7476    0.3734   -5.5547 C   0  0  0  0  0  0  0  0  0  0  0  0
   15.3841   -0.7608   -5.2683 C   0  0  0  0  0  0  0  0  0  0  0  0
   16.5668   -1.1597   -5.9849 C   0  0  0  0  0  0  0  0  0  0  0  0
   17.0112   -2.3022   -6.0753 C   0  0  0  0  0  0  0  0  0  0  0  0
   16.1845   -3.3254   -5.3383 C   0  0  0  0  0  0  0  0  0  0  0  0
   14.9393   -3.1593   -5.7966 C   0  0  0  0  0  0  0  0  0  0  0  0
   13.6845   -3.9522   -5.4169 C   0  0  0  0  0  0  0  0  0  0  0  0
   13.7672   -5.2827   -6.2427 C   0  0  0  0  0  3  0  0  0  0  0  0
   14.3267   -5.2862   -7.6067 C   0  0  0  0  0  0  0  0  0  0  0  0
   15.7107   -5.9319   -7.8574 C   0  0  0  0  0  3  0  0  0  0  0  0
   16.7206   -6.0440   -6.9144 C   0  0  0  0  0  0  0  0  0  0  0  0
   17.5382   -5.1330   -6.7298 C   0  0  0  0  0  0  0  0  0  0  0  0
   17.3004   -5.7445   -5.1930 C   0  0  0  0  0  0  0  0  0  0  0  0
   17.8195   -5.2594   -4.7881 C   0  0  0  0  0  0  0  0  0  0  0  0
   17.3783   -6.8953   -5.7742 C   0  0  2  0  0  0  0  0  0  0  0  0
   18.7432   -7.0889   -6.0438 N   0  0  0  0  0  0  0  0  0  0  0  0
   19.3033   -8.2361   -6.1169 C   0  0  0  0  0  0  0  0  0  0  0  0
   18.4677   -9.4103   -5.9063 C   0  0  0  0  0  0  0  0  0  0  0  0
   17.7255   -9.8581   -6.9087 C   0  0  0  0  0  0  0  0  0  0  0  0
   16.9094  -11.0336   -6.6456 C   0  0  0  0  0  0  0  0  0  0  0  0
   17.0345  -12.1766   -7.3014 C   0  0  0  0  0  0  0  0  0  0  0  0
   18.0676  -12.2622   -8.3660 C   0  0  0  0  0  0  0  0  0  0  0  0
   16.7399   -4.3091   -4.3796 C   0  0  1  0  0  0  0  0  0  0  0  0
   16.7483   -4.0680   -3.0301 N   0  0  0  0  0  0  0  0  0  0  0  0
   17.3426   -2.4987   -2.6247 Cl  0  0  0  0  0  0  0  0  0  0  0  0
   18.1735   -2.7533   -6.8876 N   0  0  0  0  0  3  0  0  0  0  0  0
   18.2613   -4.0837   -7.3095 N   0  0  0  0  0  0  0  0  0  0  0  0
  1  2  1  0
  2  3  1  0
  3  4  2  3
  4  5  1  0
  5  6  2  3
  6  7  1  0
  7  8  2  3
  8  9  1  0
  9 10  1  0
 10 11  1  0
 11 12  1  0
 12 13  1  0
 13 14  2  0
 14 15  1  0
 15 16  2  0
 16 17  1  0
 17 18  1  6
 18 19  2  3
 19 20  1  0
 20 21  2  3
 21 22  1  0
 22 23  2  3
 23 24  1  0
 16 25  1  0
 25 26  1  1
 26 27  1  0
  6 28  1  0
 28 29  2  3
 25  7  1  0
 17 13  1  0
 29 14  1  0
M  CHG  1  28   1
M  RAD  3  10   2  12   2  28   2
M  END
>  <docking_score>  (1) 
-4.3040000000000003

$$$$

     RDKit          3D

 29 31  0  0  0  0  0  0  0  0999 V2000
   21.3108    0.6551   -1.6464 C   0  0  0  0  0  0  0  0  0  0  0  0
   21.3637    1.6313   -2.6503 O   0  0  0  0  0  0  0  0  0  0  0  0
   20.8444    1.4659   -3.9187 C   0  0  0  0  0  0  0  0  0  0  0  0
   20.2639    0.2937   -4.1690 C   0  0  0  0  0  0  0  0  0  0  0  0
   19.6855    0.0015   -5.4541 C   0  0  0  0  0  0  0  0  0  0  0  0
   19.0068   -0.9830   -5.7387 C   0  0  0  0  0  0  0  0  0  0  0  0
   18.8069   -1.9269   -4.5799 C   0  0  0  0  0  0  0  0  0  0  0  0
   18.3226   -1.1655   -3.5931 C   0  0  0  0  0  0  0  0  0  0  0  0
   17.9062   -1.6043   -2.1855 C   0  0  0  0  0  0  0  0  0  0  0  0
   16.4771   -2.2287   -2.3498 C   0  0  0  0  0  3  0  0  0  0  0  0
   15.5211   -1.6700   -3.3232 C   0  0  0  0  0  0  0  0  0  0  0  0
   15.1917   -2.4686   -4.6073 C   0  0  0  0  0  3  0  0  0  0  0  0
   16.0409   -3.3759   -5.2216 C   0  0  0  0  0  0  0  0  0  0  0  0
   16.8854   -3.0134   -6.0509 C   0  0  0  0  0  0  0  0  0  0  0  0
   17.6629   -4.2467   -5.2343 C   0  0  0  0  0  0  0  0  0  0  0  0
   18.3656   -4.2444   -5.6525 C   0  0  0  0  0  0  0  0  0  0  0  0
   16.5312   -4.8603   -5.3384 C   0  0  2  0  0  0  0  0  0  0  0  0
   16.4568   -5.2884   -6.6742 N   0  0  0  0  0  0  0  0  0  0  0  0
   16.6328   -6.4980   -7.0497 C   0  0  0  0  0  0  0  0  0  0  0  0
   16.9283   -7.4877   -6.0229 C   0  0  0  0  0  0  0  0  0  0  0  0
   18.1937   -7.7717   -5.7504 C   0  0  0  0  0  0  0  0  0  0  0  0
   18.4341   -8.7670   -4.7166 C   0  0  0  0  0  0  0  0  0  0  0  0
   19.4435   -8.7100   -3.8622 C   0  0  0  0  0  0  0  0  0  0  0  0
   20.3833   -7.5637   -3.9663 C   0  0  0  0  0  0  0  0  0  0  0  0
   19.0576   -3.3858   -4.6429 C   0  0  1  0  0  0  0  0  0  0  0  0
   20.2507   -3.9257   -4.2375 N   0  0  0  0  0  0  0  0  0  0  0  0
   20.2394   -4.4358   -2.5884 Cl  0  0  0  0  0  0  0  0  0  0  0  0
   18.3188   -1.2584   -7.0292 N   0  0  0  0  0  3  0  0  0  0  0  0
   17.2038   -2.1017   -7.0645 N   0  0  0  0  0  0  0  0  0  0  0  0
  1  2  1  0
  2  3  1  0
  3  4  2  3
  4  5  1  0
  5  6  2  3
  6  7  1  0
  7  8  2  3
  8  9  1  0
  9 10  1  0
 10 11  1  0
 11 12  1  0
 12 13  1  0
 13 14  2  0
 14 15  1  0
 15 16  2  0
 16 17  1  0
 17 18  1  6
 18 19  2  3
 19 20  1  0
 20 21  2  3
 21 22  1  0
 22 23  2  3
 23 24  1  0
 16 25  1  0
 25 26  1  6
 26 27  1  0
  6 28  1  0
 28 29  2  3
 25  7  1  0
 17 13  1  0
 29 14  1  0
M  CHG  1  28   1
M  RAD  3  10   2  12   2  28   2
M  END
>  <docking_score>  (2) 
-4.2370000000000001

$$$$

     RDKit          3D

 29 31  0  0  0  0  0  0  0  0999 V2000
   13.4124   -0.1852   -5.7635 C   0  0  0  0  0  0  0  0  0  0  0  0
   13.3370   -0.4165   -4.3835 O   0  0  0  0  0  0  0  0  0  0  0  0
   14.4110   -0.7925   -3.6019 C   0  0  0  0  0  0  0  0  0  0  0  0
   15.5923   -0.8520   -4.2140 C   0  0  0  0  0  0  0  0  0  0  0  0
   16.7865   -1.2313   -3.5059 C   0  0  0  0  0  0  0  0  0  0  0  0
   17.5760   -2.1147   -3.8334 C   0  0  0  0  0  0  0  0  0  0  0  0
   17.1872   -2.8221   -5.1070 C   0  0  0  0  0  0  0  0  0  0  0  0
   17.0164   -1.8471   -6.0060 C   0  0  0  0  0  0  0  0  0  0  0  0
   16.6432   -1.9876   -7.4854 C   0  0  0  0  0  0  0  0  0  0  0  0
   17.9764   -2.3720   -8.2162 C   0  0  0  0  0  3  0  0  0  0  0  0
   19.2650   -1.8105   -7.7718 C   0  0  0  0  0  0  0  0  0  0  0  0
   20.2827   -2.7258   -7.0494 C   0  0  0  0  0  3  0  0  0  0  0  0
   19.9566   -3.8495   -6.3059 C   0  0  0  0  0  0  0  0  0  0  0  0
   19.6649   -3.7695   -5.1056 C   0  0  0  0  0  0  0  0  0  0  0  0
   18.6554   -4.9802   -5.6598 C   0  0  0  0  0  0  0  0  0  0  0  0
   18.2872   -5.1636   -4.9531 C   0  0  0  0  0  0  0  0  0  0  0  0
   19.7051   -5.3966   -6.2867 C   0  0  2  0  0  0  0  0  0  0  0  0
   20.5109   -6.0034   -5.3092 N   0  0  0  0  0  0  0  0  0  0  0  0
   20.7225   -7.2624   -5.2356 C   0  0  0  0  0  0  0  0  0  0  0  0
   20.0850   -8.1136   -6.2307 C   0  0  0  0  0  0  0  0  0  0  0  0
   18.8492   -8.5402   -6.0136 C   0  0  0  0  0  0  0  0  0  0  0  0
   18.2587   -9.3875   -7.0386 C   0  0  0  0  0  0  0  0  0  0  0  0
   17.2720  -10.2394   -6.8090 C   0  0  0  0  0  0  0  0  0  0  0  0
   16.7383  -10.3343   -5.4254 C   0  0  0  0  0  0  0  0  0  0  0  0
   17.1070   -4.2947   -5.2491 C   0  0  1  0  0  0  0  0  0  0  0  0
   15.9212   -4.9655   -5.0963 N   0  0  0  0  0  0  0  0  0  0  0  0
   14.5453   -4.0207   -5.5370 Cl  0  0  0  0  0  0  0  0  0  0  0  0
   18.8642   -2.4595   -3.1730 N   0  0  0  0  0  3  0  0  0  0  0  0
   19.8783   -3.0919   -3.8992 N   0  0  0  0  0  0  0  0  0  0  0  0
  1  2  1  0
  2  3  1  0
  3  4  2  3
  4  5  1  0
  5  6  2  3
  6  7  1  0
  7  8  2  3
  8  9  1  0
  9 10  1  0
 10 11  1  0
 11 12  1  0
 12 13  1  0
 13 14  2  0
 14 15  1  0
 15 16  2  0
 16 17  1  0
 17 18  1  1
 18 19  2  3
 19 20  1  0
 20 21  2  3
 21 22  1  0
 22 23  2  3
 23 24  1  0
 16 25  1  0
 25 26  1  1
 26 27  1  0
  6 28  1  0
 28 29  2  3
 25  7  1  0
 17 13  1  0
 29 14  1  0
M  CHG  1  28   1
M  RAD  3  10   2  12   2  28   2
M  END
>  <docking_score>  (3) 
-3.1499999999999999

$$$$
