
     RDKit          3D

 57 62  0  0  0  0  0  0  0  0999 V2000
   21.3715   -8.0272   -4.3442 C   0  0  0  0  0  0  0  0  0  0  0  0
   21.2288   -6.5719   -4.0094 C   0  0  0  0  0  0  0  0  0  0  0  0
   20.9921   -6.2574   -2.5620 C   0  0  0  0  0  0  0  0  0  0  0  0
   20.8097   -4.9169   -1.9140 C   0  0  0  0  0  0  0  0  0  0  0  0
   20.8190   -3.5599   -2.5533 O   0  0  0  0  0  0  0  0  0  0  0  0
   20.9892   -4.6478   -3.2271 C   0  0  0  0  0  0  0  0  0  0  0  0
   20.9012   -3.9484   -2.9374 O   0  0  0  0  0  0  0  0  0  0  0  0
   21.1300   -4.8351   -4.0883 C   0  0  0  0  0  0  0  0  0  0  0  0
   21.2218   -3.1013   -5.4395 O   0  0  0  0  0  0  0  0  0  0  0  0
   21.3416   -5.6239   -5.1663 C   0  0  0  0  0  0  0  0  0  0  0  0
   21.2455   -4.1270   -5.1615 N   0  0  0  0  0  0  0  0  0  0  0  0
   21.3769   -3.2865   -6.3970 C   0  0  0  0  0  3  0  0  0  0  0  0
   21.2256   -1.8486   -5.9977 C   0  0  0  0  0  0  0  0  0  0  0  0
   21.0006   -1.8003   -4.5154 O   0  0  0  0  0  0  0  0  0  0  0  0
   21.0130   -3.2084   -3.9986 C   0  0  0  0  0  0  0  0  0  0  0  0
   20.7953   -2.0936   -3.0189 O   0  0  0  0  0  0  0  0  0  0  0  0
   19.4110   -1.5710   -2.7729 C   0  0  0  0  0  0  0  0  0  0  0  0
   19.0966   -0.8531   -1.4939 O   0  0  0  0  0  0  0  0  0  0  0  0
   18.3411   -1.7662   -3.8060 C   0  0  0  0  0  0  0  0  0  0  0  0
   18.0303   -0.6690   -4.7804 O   0  0  0  0  0  0  0  0  0  0  0  0
   17.5820   -3.0586   -3.8646 C   0  0  0  0  0  3  0  0  0  0  0  0
   16.9734   -3.6282   -2.6176 C   0  0  0  0  0  0  0  0  0  0  0  0
   17.0944   -5.1219   -2.5504 O   0  0  0  0  0  0  0  0  0  0  0  0
   16.6788   -6.1765   -1.5681 O   0  0  0  0  0  0  0  0  0  0  0  0
   15.9700   -6.1745   -0.2461 O   0  0  0  0  0  0  0  0  0  0  0  0
   15.3831   -5.1169    0.6411 C   0  0  0  0  0  0  0  0  0  0  0  0
   14.7746   -5.6866    1.8881 O   0  0  0  0  0  0  0  0  0  0  0  0
   15.2621   -3.6233    0.5739 C   0  0  0  0  0  3  0  0  0  0  0  0
   15.6778   -2.5686   -0.4084 O   0  0  0  0  0  0  0  0  0  0  0  0
   16.3866   -2.5707   -1.7303 C   0  0  0  0  0  0  0  0  0  0  0  0
   16.5461   -1.1915   -2.2983 O   0  0  0  0  0  0  0  0  0  0  0  0
   15.5797   -0.1084   -1.9202 C   0  0  0  0  0  0  0  0  0  0  0  0
   15.5006    0.3635   -0.4986 N   0  0  0  0  0  0  0  0  0  0  0  0
   14.6924    0.5029   -2.9639 C   0  0  0  0  0  3  0  0  0  0  0  0
   13.3013   -0.0206   -3.1657 C   0  0  0  0  0  3  0  0  0  0  0  0
   12.9884   -0.8802   -4.3545 O   0  0  0  0  0  0  0  0  0  0  0  0
   12.1436   -2.1086   -4.1902 C   0  0  0  0  0  3  0  0  0  0  0  0
   11.7213   -2.8952   -5.3956 C   0  0  0  0  0  3  0  0  0  0  0  0
   12.7555   -3.4425   -6.3341 C   0  0  0  0  0  0  0  0  0  0  0  0
   13.5252   -4.6760   -5.9652 C   0  0  0  0  0  0  0  0  0  0  0  0
   12.6195   -5.6633   -5.2908 O   0  0  0  0  0  0  0  0  0  0  0  0
   12.6642   -7.0324   -4.6797 C   0  0  0  0  0  3  0  0  0  0  0  0
   13.6383   -8.1426   -4.4177 O   0  0  0  0  0  0  0  0  0  0  0  0
   15.0860   -8.4745   -4.6275 C   0  0  0  0  0  0  0  0  0  0  0  0
   16.3300   -7.8726   -5.2109 C   0  0  0  0  0  0  0  0  0  0  0  0
   16.7881   -6.6187   -5.8949 C   0  0  0  0  0  0  0  0  0  0  0  0
   16.2460   -5.2995   -6.3595 O   0  0  0  0  0  0  0  0  0  0  0  0
   14.9574   -4.5323   -6.3873 C   0  0  0  0  0  0  0  0  0  0  0  0
   15.2457   -3.2016   -7.0639 O   0  0  0  0  0  0  0  0  0  0  0  0
   16.3371   -2.3948   -7.7024 C   0  0  0  0  0  0  0  0  0  0  0  0
   17.7926   -2.3946   -8.0651 C   0  0  0  0  0  0  0  0  0  0  0  0
   18.1030   -1.0892   -8.7357 O   0  0  0  0  0  0  0  0  0  0  0  0
   19.0562   -3.2011   -8.0133 C   0  0  0  0  0  0  0  0  0  0  0  0
   20.1476   -2.3942   -8.6519 O   0  0  0  0  0  0  0  0  0  0  0  0
   19.6454   -4.5063   -7.5668 C   0  0  0  0  0  0  0  0  0  0  0  0
   19.3350   -5.8117   -6.8961 O   0  0  0  0  0  0  0  0  0  0  0  0
   18.2436   -6.6185   -6.2576 O   0  0  0  0  0  0  0  0  0  0  0  0
  2  1  1  0
  2  3  1  0
  4  3  1  0
  4  5  1  0
  4  6  1  0
  6  7  1  0
  6  8  1  0
  8  9  1  0
  8 10  1  0
 10 11  1  0
 11 12  1  0
 12 13  1  0
 13 14  1  0
 14 15  1  0
 15 16  1  0
 16 17  1  0
 17 18  1  0
 17 19  1  0
 19 20  1  0
 19 21  1  0
 21 22  1  0
 22 23  1  0
 23 24  1  0
 24 25  1  0
 25 26  1  0
 26 27  1  0
 26 28  1  0
 28 29  1  0
 29 30  1  0
 30 31  1  0
 31 32  1  0
 32 33  1  0
 32 34  1  0
 34 35  1  0
 35 36  1  0
 36 37  1  0
 37 38  1  0
 38 39  1  0
 39 40  1  0
 40 41  1  0
 41 42  1  0
 42 43  1  0
 43 44  1  0
 44 45  1  0
 45 46  1  0
 46 47  1  0
 47 48  1  0
 48 49  1  0
 49 50  1  0
 50 51  1  0
 51 52  1  0
 51 53  1  0
 53 54  1  0
 53 55  1  0
 55 56  1  0
 56 57  1  0
 10  2  1  0
 15  5  1  0
 15 11  1  0
 30 22  1  0
 48 40  1  0
 57 46  1  0
M  RAD  8  12   2  21   2  28   2  34   2  35   2  37   2  38   2  42   2
M  END
>  <docking_score>  (1) 
23.573

$$$$
