
     RDKit          3D

 22 24  0  0  0  0  0  0  0  0999 V2000
   18.4921   -2.1458   -6.4029 C   0  0  0  0  0  0  0  0  0  0  0  0
   17.3445   -2.6077   -7.2511 C   0  0  0  0  0  0  0  0  0  0  0  0
   16.0356   -1.8766   -7.2047 C   0  0  0  0  0  0  0  0  0  0  0  0
   15.7457   -0.9283   -6.0792 C   0  0  0  0  0  0  0  0  0  0  0  0
   14.4448   -1.0195   -5.3380 C   0  0  0  0  0  0  0  0  0  0  0  0
   14.4344   -1.3869   -3.8837 C   0  0  0  0  0  0  0  0  0  0  0  0
   15.7279   -1.5450   -3.1408 C   0  0  0  0  0  0  0  0  0  0  0  0
   16.5198   -2.8119   -3.2750 C   0  0  0  0  0  0  0  0  0  0  0  0
   17.8237   -3.1125   -2.5972 C   0  0  0  0  0  0  0  0  0  0  0  0
   18.2566   -4.4870   -3.0138 C   0  0  0  0  0  0  0  0  0  0  0  0
   17.2203   -5.0358   -3.9491 C   0  0  0  0  0  0  0  0  0  0  0  0
   16.1468   -4.0005   -4.1105 C   0  0  0  0  0  0  0  0  0  0  0  0
   15.3774   -5.0613   -5.1338 C   0  0  0  0  0  0  0  0  0  0  0  0
   15.9056   -6.4213   -5.4826 C   0  0  0  0  0  0  0  0  0  0  0  0
   14.0735   -4.7606   -5.8116 C   0  0  0  0  0  0  0  0  0  0  0  0
   18.7847   -5.8469   -3.3626 C   0  0  0  0  0  0  0  0  0  0  0  0
   19.4048   -7.1840   -3.6414 N   0  0  0  0  0  0  0  0  0  0  0  0
   18.5050   -7.9242   -4.5862 C   0  0  0  0  0  0  0  0  0  0  0  0
   17.1222   -7.2146   -5.1083 C   0  0  0  0  0  0  0  0  0  0  0  0
   18.3149   -6.9767   -4.2302 C   0  0  0  0  0  0  0  0  0  0  0  0
   18.9657   -7.3878   -4.0233 C   0  0  0  0  0  0  0  0  0  0  0  0
   18.8221   -8.3406   -4.5942 C   0  0  0  0  0  0  0  0  0  0  0  0
  1  2  1  0
  2  3  1  0
  3  4  1  0
  4  5  1  0
  5  6  1  0
  6  7  1  0
  7  8  2  3
  8  9  1  0
  9 10  2  0
 10 11  1  0
 11 12  2  0
 12 13  1  0
 13 14  1  0
 13 15  1  0
 10 16  1  0
 16 17  1  0
 17 18  1  0
 18 19  2  0
 19 20  1  0
 20 21  1  0
 20 22  1  0
 12  8  1  0
 19 14  1  0
 20 16  1  0
M  END
>  <docking_score>  (1) 
-5.3470000000000004

$$$$

     RDKit          3D

 22 24  0  0  0  0  0  0  0  0999 V2000
   16.9351   -2.3145   -8.1337 C   0  0  0  0  0  0  0  0  0  0  0  0
   17.6903   -1.7572   -6.9637 C   0  0  0  0  0  0  0  0  0  0  0  0
   16.9624   -1.4035   -5.7008 C   0  0  0  0  0  0  0  0  0  0  0  0
   15.7683   -0.4972   -5.7520 C   0  0  0  0  0  0  0  0  0  0  0  0
   14.3881   -1.0659   -5.6047 C   0  0  0  0  0  0  0  0  0  0  0  0
   14.2027   -2.4558   -5.0718 C   0  0  0  0  0  0  0  0  0  0  0  0
   14.2954   -3.6325   -5.9974 C   0  0  0  0  0  0  0  0  0  0  0  0
   15.3156   -4.7036   -5.7489 C   0  0  0  0  0  0  0  0  0  0  0  0
   15.5254   -5.9322   -6.5835 C   0  0  0  0  0  0  0  0  0  0  0  0
   16.6447   -6.7221   -5.9726 C   0  0  0  0  0  0  0  0  0  0  0  0
   17.1266   -5.9818   -4.7603 C   0  0  0  0  0  0  0  0  0  0  0  0
   16.3052   -4.7343   -4.6221 C   0  0  0  0  0  0  0  0  0  0  0  0
   17.2011   -4.3805   -3.2668 C   0  0  0  0  0  0  0  0  0  0  0  0
   18.3057   -5.2492   -2.7421 C   0  0  0  0  0  0  0  0  0  0  0  0
   16.9913   -3.1519   -2.4321 C   0  0  0  0  0  0  0  0  0  0  0  0
   17.7492   -7.5908   -5.4479 C   0  0  0  0  0  0  0  0  0  0  0  0
   18.8323   -8.5330   -5.0128 N   0  0  0  0  0  0  0  0  0  0  0  0
   19.4680   -7.9693   -3.7765 C   0  0  0  0  0  0  0  0  0  0  0  0
   18.9237   -6.5493   -3.1636 C   0  0  0  0  0  0  0  0  0  0  0  0
   18.6933   -7.5193   -4.2844 C   0  0  0  0  0  0  0  0  0  0  0  0
   19.0129   -8.2107   -4.5192 C   0  0  0  0  0  0  0  0  0  0  0  0
   19.8016   -8.3709   -3.7403 C   0  0  0  0  0  0  0  0  0  0  0  0
  1  2  1  0
  2  3  1  0
  3  4  1  0
  4  5  1  0
  5  6  1  0
  6  7  1  0
  7  8  2  3
  8  9  1  0
  9 10  2  0
 10 11  1  0
 11 12  2  0
 12 13  1  0
 13 14  1  0
 13 15  1  0
 10 16  1  0
 16 17  1  0
 17 18  1  0
 18 19  2  0
 19 20  1  0
 20 21  1  0
 20 22  1  0
 12  8  1  0
 19 14  1  0
 20 16  1  0
M  END
>  <docking_score>  (2) 
-5.0279999999999996

$$$$

     RDKit          3D

 22 24  0  0  0  0  0  0  0  0999 V2000
   16.4521   -5.5472   -4.3469 C   0  0  0  0  0  0  0  0  0  0  0  0
   17.5080   -6.6024   -4.4940 C   0  0  0  0  0  0  0  0  0  0  0  0
   18.5762   -6.7451   -3.4507 C   0  0  0  0  0  0  0  0  0  0  0  0
   19.9396   -6.1670   -3.6893 C   0  0  0  0  0  0  0  0  0  0  0  0
   20.1080   -4.6853   -3.8519 C   0  0  0  0  0  0  0  0  0  0  0  0
   20.3549   -3.8222   -2.6502 C   0  0  0  0  0  0  0  0  0  0  0  0
   19.2119   -3.4269   -1.7630 C   0  0  0  0  0  0  0  0  0  0  0  0
   18.0080   -2.7497   -2.3479 C   0  0  0  0  0  0  0  0  0  0  0  0
   16.7948   -2.2987   -1.5897 C   0  0  0  0  0  0  0  0  0  0  0  0
   15.8429   -1.6749   -2.5668 C   0  0  0  0  0  0  0  0  0  0  0  0
   16.4677   -1.7404   -3.9289 C   0  0  0  0  0  0  0  0  0  0  0  0
   17.8058   -2.4047   -3.7936 C   0  0  0  0  0  0  0  0  0  0  0  0
   17.9882   -2.2103   -5.4347 C   0  0  0  0  0  0  0  0  0  0  0  0
   16.9634   -1.5671   -6.3214 C   0  0  0  0  0  0  0  0  0  0  0  0
   19.2014   -2.6613   -6.1929 C   0  0  0  0  0  0  0  0  0  0  0  0
   14.8182   -1.0317   -3.4535 C   0  0  0  0  0  0  0  0  0  0  0  0
   13.7268   -0.3731   -4.2442 N   0  0  0  0  0  0  0  0  0  0  0  0
   14.1556   -0.3319   -5.6810 C   0  0  0  0  0  0  0  0  0  0  0  0
   15.6105   -0.9555   -6.1083 C   0  0  0  0  0  0  0  0  0  0  0  0
   14.7218   -0.7337   -4.9204 C   0  0  0  0  0  0  0  0  0  0  0  0
   14.0038   -0.4115   -4.7936 C   0  0  0  0  0  0  0  0  0  0  0  0
   13.7127   -0.0945   -5.8276 C   0  0  0  0  0  0  0  0  0  0  0  0
  1  2  1  0
  2  3  1  0
  3  4  1  0
  4  5  1  0
  5  6  1  0
  6  7  1  0
  7  8  2  3
  8  9  1  0
  9 10  2  0
 10 11  1  0
 11 12  2  0
 12 13  1  0
 13 14  1  0
 13 15  1  0
 10 16  1  0
 16 17  1  0
 17 18  1  0
 18 19  2  0
 19 20  1  0
 20 21  1  0
 20 22  1  0
 12  8  1  0
 19 14  1  0
 20 16  1  0
M  END
>  <docking_score>  (3) 
-4.6449999999999996

$$$$
