
     RDKit          3D

 44 51  0  0  0  0  0  0  0  0999 V2000
   12.3353   15.2192    7.5739 O   0  0  0  0  0  0  0  0  0  0  0  0
   11.7357   15.2183    8.9488 C   0  0  0  0  0  0  0  0  0  0  0  0
   12.8835   15.1305    9.9104 N   0  0  0  0  0  0  0  0  0  0  0  0
   13.3290   15.0702   11.3414 C   0  0  0  0  0  0  0  0  0  0  0  0
   12.9307   15.0564   12.7875 C   0  0  0  0  0  0  0  0  0  0  0  0
   14.3539   14.9656   13.2527 C   0  0  0  0  0  0  0  0  0  0  0  0
   14.6615   14.9120   14.7198 C   0  0  0  0  0  0  0  0  0  0  0  0
   13.5459   14.9491   15.7218 C   0  0  0  0  0  0  0  0  0  0  0  0
   13.8535   14.8955   17.1890 O   0  0  0  0  0  0  0  0  0  0  0  0
   12.1227   15.0399   15.2567 C   0  0  0  0  0  0  0  0  0  0  0  0
   11.8151   15.0935   13.7895 C   0  0  0  0  0  0  0  0  0  0  0  0
   10.2499   15.3056    8.7619 C   0  0  0  0  0  0  0  0  0  0  0  0
    8.8979   15.3646    9.4089 O   0  0  0  0  0  0  0  0  0  0  0  0
    8.1090   15.3768   10.6847 S   0  0  0  0  0  0  0  0  0  0  0  0
    8.1337   15.3381   12.1840 C   0  0  0  0  0  0  0  0  0  0  0  0
    8.9639   15.2609   13.4309 C   0  0  0  0  0  0  0  0  0  0  0  0
   10.3363   15.1697   14.0294 C   0  0  0  0  0  0  0  0  0  0  0  0
    9.8496   15.2337   12.5463 C   0  0  0  0  0  0  0  0  0  0  0  0
    8.0184   15.3754   10.9435 C   0  0  0  0  0  0  0  0  0  0  0  0
    7.2787   15.4540    9.4378 C   0  0  0  0  0  0  0  0  0  0  0  0
    5.9063   15.5452    8.8393 C   0  0  0  0  0  0  0  0  0  0  0  0
    4.4276   15.6214    9.0792 C   0  0  0  0  0  0  0  0  0  0  0  0
    3.3120   15.6585   10.0812 O   0  0  0  0  0  0  0  0  0  0  0  0
    2.9138   15.6447   11.5273 S   0  0  0  0  0  0  0  0  0  0  0  0
    3.3593   15.5843   12.9583 C   0  0  0  0  0  0  0  0  0  0  0  0
    4.6802   15.4877   13.8918 S   0  0  0  0  0  0  0  0  0  0  0  0
    5.9094   15.4407   13.0335 C   0  0  0  0  0  0  0  0  0  0  0  0
    7.3448   15.3502   13.4597 C   0  0  0  0  0  0  0  0  0  0  0  0
    7.9053   15.2845   14.8495 N   0  0  0  0  0  0  0  0  0  0  0  0
    7.1690   15.2929   16.1563 S   0  0  2  0  0  0  0  0  0  0  0  0
    6.0613   15.3796   15.1486 C   0  0  0  0  0  0  0  0  0  0  0  0
    4.5827   15.4559   15.3883 C   0  0  0  0  0  0  0  0  0  0  0  0
    3.8463   15.4643   16.6952 O   0  0  0  0  0  0  0  0  0  0  0  0
    4.4069   15.3986   18.0850 S   0  0  0  0  0  0  0  0  0  0  0  0
    5.8422   15.3081   18.5111 O   0  0  0  0  0  0  0  0  0  0  0  0
    7.0715   15.2611   17.6528 C   0  0  0  0  0  0  0  0  0  0  0  0
    5.9638   15.3478   16.6451 C   0  0  0  0  0  0  0  0  0  0  0  0
    4.5750   15.4110   17.2082 O   0  0  0  0  0  0  0  0  0  0  0  0
    4.1004   14.3484   18.1545 O   0  0  0  0  0  0  0  0  0  0  0  0
    3.9588   12.9319   17.6816 C   0  0  0  0  0  0  0  0  0  0  0  0
    4.2732   11.7963   18.6099 C   0  0  0  0  0  0  0  0  0  0  0  0
    5.5990   11.1003   18.5214 S   0  0  0  0  0  0  0  0  0  0  0  0
    6.1489   10.3795   19.7164 O   0  0  0  0  0  0  0  0  0  0  0  0
    5.2339    9.9710   20.8325 F   0  0  0  0  0  0  0  0  0  0  0  0
  1  2  2  0
  2  3  1  0
  3  4  1  0
  4  5  1  0
  5  6  1  0
  6  7  2  0
  7  8  1  0
  8  9  1  0
  8 10  2  0
 10 11  1  0
  2 12  1  0
 12 13  1  0
 13 14  1  0
 14 15  1  0
 15 16  1  0
 16 17  2  0
 17 18  1  0
 18 19  1  0
 19 20  2  0
 20 21  1  0
 21 22  2  3
 22 23  1  0
 23 24  1  0
 24 25  1  0
 25 26  1  0
 26 27  1  0
 27 28  2  0
 28 29  1  0
 29 30  1  0
 30 31  1  0
 31 32  2  0
 32 33  1  0
 33 34  1  0
 34 35  1  0
 35 36  1  0
 36 37  2  0
 37 38  1  0
 38 39  1  0
 39 40  1  0
 40 41  1  0
 41 42  1  0
 42 43  1  0
 43 44  1  0
 11  5  2  0
 22  7  1  0
 17 11  1  0
 20 14  1  0
 28 15  1  0
 32 26  1  0
 36 30  1  0
 37 31  1  0
M  END
>  <docking_score>  (1) 
13.513999999999999

$$$$
