
     RDKit          3D

 11 11  0  0  0  0  0  0  0  0999 V2000
    3.9746   -5.3745   -7.7465 O   0  0  0  0  0  0  0  0  0  0  0  0
    3.8654   -4.1440   -7.1067 C   0  0  0  0  0  0  0  0  0  0  0  0
    5.2841   -3.6689   -6.7849 C   0  0  0  0  0  3  0  0  0  0  0  0
    5.1530   -2.4683   -6.0032 N   0  0  0  0  0  0  0  0  0  0  0  0
    6.2517   -1.5611   -6.1293 C   0  0  0  0  0  3  0  0  0  0  0  0
    5.8568   -0.3207   -6.8914 C   0  0  2  0  0  0  0  0  0  0  0  0
    5.8666   -0.6169   -8.2689 O   0  0  0  0  0  0  0  0  0  0  0  0
    6.7753    0.8085   -6.5515 C   0  0  1  0  0  0  0  0  0  0  0  0
    6.6396    2.0372   -7.1844 O   0  0  0  0  0  0  0  0  0  0  0  0
    6.0801    2.0020   -5.9191 C   0  0  2  0  0  0  0  0  0  0  0  0
    6.7022    2.6152   -4.8600 O   0  0  0  0  0  0  0  0  0  0  0  0
  1  2  1  0
  2  3  1  0
  3  4  1  0
  4  5  1  0
  5  6  1  0
  6  7  1  6
  6  8  1  0
  8  9  1  6
  8 10  1  0
 10 11  1  1
 10  9  1  0
M  RAD  2   3   2   5   2
M  END
>  <docking_score>  (1) 
-4.3339999999999996

$$$$

     RDKit          3D

 11 11  0  0  0  0  0  0  0  0999 V2000
   13.6969   -5.6433   -7.2717 O   0  0  0  0  0  0  0  0  0  0  0  0
   14.6588   -5.4425   -6.2868 C   0  0  0  0  0  0  0  0  0  0  0  0
   14.3300   -6.3864   -5.1280 C   0  0  0  0  0  3  0  0  0  0  0  0
   15.4687   -6.3775   -4.2488 N   0  0  0  0  0  0  0  0  0  0  0  0
   16.5847   -5.6290   -4.7390 C   0  0  0  0  0  3  0  0  0  0  0  0
   17.2436   -4.8375   -3.6369 C   0  0  2  0  0  0  0  0  0  0  0  0
   17.8784   -5.7353   -2.7558 O   0  0  0  0  0  0  0  0  0  0  0  0
   16.2340   -3.9835   -2.9399 C   0  0  1  0  0  0  0  0  0  0  0  0
   16.6119   -3.1835   -1.8695 O   0  0  0  0  0  0  0  0  0  0  0  0
   16.4955   -2.4921   -3.0626 C   0  0  2  0  0  0  0  0  0  0  0  0
   15.4191   -1.6727   -3.2961 O   0  0  0  0  0  0  0  0  0  0  0  0
  1  2  1  0
  2  3  1  0
  3  4  1  0
  4  5  1  0
  5  6  1  0
  6  7  1  1
  6  8  1  0
  8  9  1  1
  8 10  1  0
 10 11  1  1
 10  9  1  0
M  RAD  2   3   2   5   2
M  END
>  <docking_score>  (2) 
-3.0190000000000001

$$$$

     RDKit          3D

 11 11  0  0  0  0  0  0  0  0999 V2000
   14.3773    0.1722   -5.7298 O   0  0  0  0  0  0  0  0  0  0  0  0
   15.2600   -0.8941   -5.5905 C   0  0  0  0  0  0  0  0  0  0  0  0
   14.4671   -2.0718   -5.0195 C   0  0  0  0  0  3  0  0  0  0  0  0
   15.3577   -2.7876   -4.1453 N   0  0  0  0  0  0  0  0  0  0  0  0
   16.0398   -1.9629   -3.1964 C   0  0  0  0  0  3  0  0  0  0  0  0
   17.3416   -2.5871   -2.7597 C   0  0  2  0  0  0  0  0  0  0  0  0
   17.0598   -3.6246   -1.8489 O   0  0  0  0  0  0  0  0  0  0  0  0
   18.2400   -1.5483   -2.1696 C   0  0  1  0  0  0  0  0  0  0  0  0
   19.4594   -1.9109   -1.6123 O   0  0  0  0  0  0  0  0  0  0  0  0
   19.5674   -1.3961   -2.8924 C   0  0  2  0  0  0  0  0  0  0  0  0
   20.0392   -0.1236   -3.0990 O   0  0  0  0  0  0  0  0  0  0  0  0
  1  2  1  0
  2  3  1  0
  3  4  1  0
  4  5  1  0
  5  6  1  0
  6  7  1  1
  6  8  1  0
  8  9  1  1
  8 10  1  0
 10 11  1  1
 10  9  1  0
M  RAD  2   3   2   5   2
M  END
>  <docking_score>  (3) 
-2.9079999999999999

$$$$
