
     RDKit          3D

 60 62  0  0  0  0  0  0  0  0999 V2000
   18.2220   -3.1876   -4.5143 O   0  0  0  0  0  0  0  0  0  0  0  0
   19.3763   -2.5233   -3.8242 C   0  0  0  0  0  0  0  0  0  0  0  0
   19.2029   -1.9630   -2.4437 C   0  0  0  0  0  0  0  0  0  0  0  0
   18.3983   -2.7143   -1.4248 C   0  0  0  0  0  0  0  0  0  0  0  0
   17.0188   -3.1954   -1.7647 C   0  0  0  0  0  0  0  0  0  0  0  0
   16.2143   -3.9467   -0.7458 C   0  0  0  0  0  0  0  0  0  0  0  0
   16.2443   -3.5247    0.6933 C   0  0  0  0  0  0  0  0  0  0  0  0
   15.4397   -4.2761    1.7122 N   0  0  0  0  0  0  0  0  0  0  0  0
   14.6052   -5.4494    1.2920 C   0  0  0  0  0  0  0  0  0  0  0  0
   13.8006   -6.2008    2.3109 C   0  0  0  0  0  0  0  0  0  0  0  0
   14.1471   -6.3658    3.7610 C   0  0  0  0  0  0  0  0  0  0  0  0
   13.0689   -7.1861    4.4048 C   0  0  0  0  0  0  0  0  0  0  0  0
   12.0560   -7.5280    3.3527 C   0  0  0  0  0  0  0  0  0  0  0  0
   10.8096   -8.3369    3.5585 Cl  0  0  0  0  0  0  0  0  0  0  0  0
   12.5081   -6.9191    2.0585 C   0  0  0  0  0  0  0  0  0  0  0  0
   14.5751   -5.8715   -0.1471 N   0  0  0  0  0  0  0  0  0  0  0  0
   15.3796   -5.1202   -1.1660 C   0  0  0  0  0  0  0  0  0  0  0  0
   15.3496   -5.5422   -2.6051 C   0  0  0  0  0  0  0  0  0  0  0  0
   14.5150   -6.7157   -3.0253 N   0  0  0  0  0  0  0  0  0  0  0  0
   20.7039   -2.4193   -4.5146 C   0  0  0  0  0  0  0  0  0  0  0  0
   20.8244   -2.7774   -5.9662 C   0  0  0  0  0  0  0  0  0  0  0  0
   19.6577   -3.3831   -6.6887 C   0  0  0  0  0  0  0  0  0  0  0  0
   18.2610   -3.1259   -6.2059 C   0  0  0  0  0  0  0  0  0  0  0  0
   17.3548   -2.2168   -6.9819 C   0  0  0  0  0  0  0  0  0  0  0  0
   17.2929   -0.7558   -6.6479 C   0  0  0  0  0  0  0  0  0  0  0  0
   16.1951   -0.2332   -5.7694 C   0  0  0  0  0  0  0  0  0  0  0  0
   15.2958   -1.1895   -5.0437 C   0  0  0  0  0  0  0  0  0  0  0  0
   14.1979   -0.6669   -4.1653 C   0  0  0  0  0  0  0  0  0  0  0  0
   12.8009   -0.5512   -4.6993 C   0  0  0  0  0  0  0  0  0  0  0  0
   11.4039   -0.4355   -5.2333 C   0  0  0  0  0  0  0  0  0  0  0  0
   10.0070   -0.3198   -5.7672 C   0  0  0  0  0  0  0  0  0  0  0  0
    8.9092    0.2028   -4.8888 C   0  0  0  0  0  0  0  0  0  0  0  0
    7.4762   -0.0797   -5.2308 C   0  0  0  0  0  0  0  0  0  0  0  0
    6.3784    0.4429   -4.3524 C   0  0  0  0  0  0  0  0  0  0  0  0
    5.7786    1.7906   -4.6233 C   0  0  0  0  0  0  0  0  0  0  0  0
   16.5103   -2.7687   -8.0921 N   0  0  0  0  0  2  0  0  0  0  0  0
   15.7327   -4.0346   -7.8846 C   0  0  0  0  0  0  0  0  0  0  0  0
   14.3909   -3.9895   -7.2156 C   0  0  0  0  0  0  0  0  0  0  0  0
   13.6134   -5.2553   -7.0082 C   0  0  0  0  0  0  0  0  0  0  0  0
   12.4166   -5.0603   -7.8912 C   0  0  0  0  0  0  0  0  0  0  0  0
   11.1107   -5.4673   -8.5069 C   0  0  0  0  0  0  0  0  0  0  0  0
    9.9546   -6.3957   -8.7335 C   0  0  0  0  0  0  0  0  0  0  0  0
    9.1769   -7.6615   -8.5261 C   0  0  0  0  0  0  0  0  0  0  0  0
    8.9320   -9.0141   -7.9257 C   0  0  0  0  0  0  0  0  0  0  0  0
    9.2682  -10.1856   -7.0512 C   0  0  0  0  0  0  0  0  0  0  0  0
   10.1189  -10.9439   -6.0759 C   0  0  0  0  0  0  0  0  0  0  0  0
   11.3157  -11.1388   -5.1929 N   0  0  0  0  0  0  0  0  0  0  0  0
   12.6216  -10.7318   -4.5771 C   0  0  0  0  0  0  0  0  0  0  0  0
   13.7777   -9.8035   -4.3505 C   0  0  0  0  0  0  0  0  0  0  0  0
   14.5554   -8.5376   -4.5580 C   0  0  0  0  0  0  0  0  0  0  0  0
   14.8003   -7.1850   -5.1584 C   0  0  0  0  0  0  0  0  0  0  0  0
   14.4641   -6.0135   -6.0329 N   0  0  0  0  0  3  0  0  0  0  0  0
   15.6203   -5.0852   -5.8063 C   0  0  0  0  0  0  0  0  0  0  0  0
   16.9967   -5.6405   -5.5892 C   0  0  0  0  0  0  0  0  0  0  0  0
   17.3058   -7.0543   -5.9835 C   0  0  0  0  0  0  0  0  0  0  0  0
   18.6822   -7.6097   -5.7664 C   0  0  0  0  0  0  0  0  0  0  0  0
   19.2736   -8.5599   -6.7651 C   0  0  0  0  0  0  0  0  0  0  0  0
   20.7631   -8.6807   -6.8947 C   0  0  0  0  0  0  0  0  0  0  0  0
   21.3545   -9.6309   -7.8934 C   0  0  0  0  0  0  0  0  0  0  0  0
   20.4771  -10.6271   -8.5917 O   0  0  0  0  0  1  0  0  0  0  0  0
  1  2  2  0
  2  3  1  0
  3  4  1  0
  4  5  2  3
  5  6  1  0
  6  7  2  0
  7  8  1  0
  8  9  1  0
  9 10  1  0
 10 11  2  0
 11 12  1  0
 12 13  2  0
 13 14  1  0
 13 15  1  0
  9 16  2  0
 16 17  1  0
 17 18  2  3
 18 19  1  0
  2 20  1  0
 20 21  1  0
 21 22  1  0
 22 23  1  0
 23 24  1  0
 24 25  1  0
 25 26  1  0
 26 27  2  3
 27 28  1  0
 28 29  2  0
 29 30  2  0
 30 31  2  0
 31 32  1  0
 32 33  2  3
 33 34  1  0
 34 35  2  0
 24 36  1  0
 36 37  1  0
 37 38  2  3
 38 39  1  0
 39 40  2  3
 40 41  1  0
 41 42  2  3
 42 43  1  0
 43 44  2  3
 44 45  1  0
 45 46  2  3
 46 47  1  0
 47 48  1  0
 48 49  2  3
 49 50  1  0
 50 51  2  3
 51 52  1  0
 52 53  1  0
 53 54  1  0
 54 55  2  3
 55 56  1  0
 56 57  1  0
 57 58  2  3
 58 59  1  0
 59 60  1  0
 17  6  1  0
 15 10  1  0
 52 39  1  0
M  CHG  3  36   1  52   1  60  -1
M  RAD  2  36   3  52   2
M  END
>  <docking_score>  (1) 
68.608000000000004

$$$$
