
     RDKit          3D

 32 33  0  0  0  0  0  0  0  0999 V2000
    3.8792    9.5547    5.2218 C   0  0  0  0  0  0  0  0  0  0  0  0
    4.9302    8.6263    4.6683 C   0  0  1  0  0  0  0  0  0  0  0  0
    4.8526    7.3156    5.4196 C   0  0  0  0  0  0  0  0  0  0  0  0
    3.3830    6.8916    5.3500 C   0  0  2  0  0  0  0  0  0  0  0  0
    3.1427    5.8707    6.2412 O   0  0  0  0  0  0  0  0  0  0  0  0
    3.0980    6.5026    3.9415 C   0  0  2  0  0  0  0  0  0  0  0  0
    3.7221    5.3341    3.5738 O   0  0  0  0  0  0  0  0  0  0  0  0
    3.3810    7.5980    2.9737 C   0  0  1  0  0  0  0  0  0  0  0  0
    2.2599    8.4317    2.7798 O   0  0  0  0  0  0  0  0  0  0  0  0
    4.6419    8.3618    3.2046 C   0  0  1  0  0  0  0  0  0  0  0  0
    4.4406    9.6939    2.6054 N   0  0  0  0  0  0  0  0  0  0  0  0
    5.6484   10.4700    2.6391 C   0  0  0  0  0  3  0  0  0  0  0  0
    5.3007   11.9440    2.6794 C   0  0  0  0  0  0  0  0  0  0  0  0
    6.5910   12.7196    2.5371 C   0  0  2  0  0  0  0  0  0  0  0  0
    6.5096   13.3986    1.3108 O   0  0  0  0  0  0  0  0  0  0  0  0
    7.7041   11.8260    2.4941 N   0  0  0  0  0  0  0  0  0  0  0  0
    8.2778   11.5329    3.7127 N   0  0  0  0  0  0  0  0  0  0  0  0
    8.5817   12.5939    4.4645 O   0  0  0  0  0  0  0  0  0  0  0  0
    9.5403   13.3373    3.9880 O   0  0  0  0  0  0  0  0  0  0  0  0
    9.1498   14.3234    3.1337 C   0  0  2  0  0  0  0  0  0  0  0  0
   10.0085   15.4325    3.3311 O   0  0  0  0  0  0  0  0  0  0  0  0
    7.7583   14.7974    3.2608 C   0  0  2  0  0  0  0  0  0  0  0  0
    7.5808   15.9834    4.0482 N   0  0  0  0  0  0  0  0  0  0  0  0
    6.7453   13.7483    3.6369 C   0  0  1  0  0  0  0  0  0  0  0  0
    5.4690   14.4714    3.7825 N   0  0  0  0  0  0  0  0  0  0  0  0
    5.2254   14.4686    5.1181 O   0  0  0  0  0  0  0  0  0  0  0  0
    4.0437   13.9318    5.4478 N   0  0  0  0  0  0  0  0  0  0  0  0
    3.2036   14.1783    4.3930 O   0  0  0  0  0  0  0  0  0  0  0  0
    3.4776   14.5961    6.5489 N   0  0  0  0  0  0  0  0  0  0  0  0
    4.5293   15.4562    7.0943 C   0  0  0  0  0  3  0  0  0  0  0  0
    4.4212   15.4964    8.4841 O   0  0  0  0  0  0  0  0  0  0  0  0
    4.9681   14.3257    9.0056 C   0  0  0  0  0  2  0  0  0  0  0  0
  2  1  1  1
  2  3  1  0
  3  4  1  0
  4  5  1  1
  4  6  1  0
  6  7  1  6
  6  8  1  0
  8  9  1  1
  8 10  1  0
 10 11  1  6
 11 12  1  0
 12 13  1  0
 13 14  1  0
 14 15  1  6
 14 16  1  0
 16 17  1  0
 17 18  1  0
 18 19  1  0
 19 20  1  0
 20 21  1  1
 20 22  1  0
 22 23  1  1
 22 24  1  0
 24 25  1  6
 25 26  1  0
 26 27  1  0
 27 28  1  0
 27 29  1  0
 29 30  1  0
 30 31  1  0
 31 32  1  0
 10  2  1  0
 24 14  1  0
M  RAD  3  12   2  30   2  32   3
M  END
>  <docking_score>  (1) 
-3.6299999999999999

$$$$

     RDKit          3D

 32 33  0  0  0  0  0  0  0  0999 V2000
    3.8856   13.0303    3.3083 C   0  0  0  0  0  0  0  0  0  0  0  0
    4.3697   11.7982    4.0295 C   0  0  1  0  0  0  0  0  0  0  0  0
    5.2136   10.9856    3.0725 C   0  0  0  0  0  0  0  0  0  0  0  0
    6.2473   11.9640    2.5081 C   0  0  2  0  0  0  0  0  0  0  0  0
    6.8773   11.4091    1.4175 O   0  0  0  0  0  0  0  0  0  0  0  0
    7.1927   12.2970    3.6089 C   0  0  2  0  0  0  0  0  0  0  0  0
    8.0000   11.2402    3.9570 O   0  0  0  0  0  0  0  0  0  0  0  0
    6.5095   12.8745    4.7990 C   0  0  1  0  0  0  0  0  0  0  0  0
    6.3989   14.2780    4.7130 O   0  0  0  0  0  0  0  0  0  0  0  0
    5.2340   12.2135    5.2026 C   0  0  1  0  0  0  0  0  0  0  0  0
    4.4443   13.2302    5.9214 N   0  0  0  0  0  0  0  0  0  0  0  0
    3.7040   12.6469    7.0049 C   0  0  0  0  0  3  0  0  0  0  0  0
    4.6611   12.2232    8.1001 C   0  0  0  0  0  0  0  0  0  0  0  0
    4.4912   13.1889    9.2512 C   0  0  2  0  0  0  0  0  0  0  0  0
    3.1589   13.6295    9.2029 O   0  0  0  0  0  0  0  0  0  0  0  0
    5.3534   14.3151    9.0845 N   0  0  0  0  0  0  0  0  0  0  0  0
    6.6002   14.1988    9.6608 N   0  0  0  0  0  0  0  0  0  0  0  0
    6.5982   13.8197   10.9412 O   0  0  0  0  0  0  0  0  0  0  0  0
    6.1002   14.6988   11.7646 O   0  0  0  0  0  0  0  0  0  0  0  0
    4.7549   14.6222   11.9626 C   0  0  2  0  0  0  0  0  0  0  0  0
    4.4941   14.9823   13.3075 O   0  0  0  0  0  0  0  0  0  0  0  0
    4.1217   13.3134   11.7112 C   0  0  2  0  0  0  0  0  0  0  0  0
    3.9182   12.4944   12.8712 N   0  0  0  0  0  0  0  0  0  0  0  0
    4.7155   12.5089   10.5850 C   0  0  1  0  0  0  0  0  0  0  0  0
    3.9804   11.2311   10.5872 N   0  0  0  0  0  0  0  0  0  0  0  0
    4.9489   10.2802   10.6175 O   0  0  0  0  0  0  0  0  0  0  0  0
    5.0041    9.6060   11.7732 N   0  0  0  0  0  0  0  0  0  0  0  0
    6.0255    8.7015   11.6404 O   0  0  0  0  0  0  0  0  0  0  0  0
    3.8413    8.8415   11.9673 N   0  0  0  0  0  0  0  0  0  0  0  0
    3.4539    9.0316   13.3663 C   0  0  0  0  0  3  0  0  0  0  0  0
    2.5408    8.0435   13.7329 O   0  0  0  0  0  0  0  0  0  0  0  0
    3.1355    6.7977   13.5441 C   0  0  0  0  0  2  0  0  0  0  0  0
  2  1  1  6
  2  3  1  0
  3  4  1  0
  4  5  1  6
  4  6  1  0
  6  7  1  1
  6  8  1  0
  8  9  1  6
  8 10  1  0
 10 11  1  1
 11 12  1  0
 12 13  1  0
 13 14  1  0
 14 15  1  1
 14 16  1  0
 16 17  1  0
 17 18  1  0
 18 19  1  0
 19 20  1  0
 20 21  1  1
 20 22  1  0
 22 23  1  1
 22 24  1  0
 24 25  1  6
 25 26  1  0
 26 27  1  0
 27 28  1  0
 27 29  1  0
 29 30  1  0
 30 31  1  0
 31 32  1  0
 10  2  1  0
 24 14  1  0
M  RAD  3  12   2  30   2  32   3
M  END
>  <docking_score>  (2) 
-3.5430000000000001

$$$$

     RDKit          3D

 32 33  0  0  0  0  0  0  0  0999 V2000
   13.8229   -3.4244   -5.0739 C   0  0  0  0  0  0  0  0  0  0  0  0
   15.0472   -3.3761   -5.9523 C   0  0  1  0  0  0  0  0  0  0  0  0
   15.0684   -2.0437   -6.6684 C   0  0  0  0  0  0  0  0  0  0  0  0
   14.9054   -0.9882   -5.5715 C   0  0  2  0  0  0  0  0  0  0  0  0
   14.6199    0.2360   -6.1319 O   0  0  0  0  0  0  0  0  0  0  0  0
   16.1633   -0.9753   -4.7752 C   0  0  2  0  0  0  0  0  0  0  0  0
   17.2309   -0.4611   -5.4724 O   0  0  0  0  0  0  0  0  0  0  0  0
   16.4865   -2.3050   -4.1887 C   0  0  1  0  0  0  0  0  0  0  0  0
   15.8976   -2.4772   -2.9187 O   0  0  0  0  0  0  0  0  0  0  0  0
   16.2868   -3.4794   -5.0873 C   0  0  1  0  0  0  0  0  0  0  0  0
   16.0490   -4.6416   -4.2115 N   0  0  0  0  0  0  0  0  0  0  0  0
   16.7886   -5.7899   -4.6549 C   0  0  0  0  0  3  0  0  0  0  0  0
   16.3442   -6.1679   -6.0530 C   0  0  0  0  0  0  0  0  0  0  0  0
   17.4272   -7.0341   -6.6558 C   0  0  2  0  0  0  0  0  0  0  0  0
   17.1523   -7.1091   -8.0308 O   0  0  0  0  0  0  0  0  0  0  0  0
   17.3731   -8.3504   -6.1045 N   0  0  0  0  0  0  0  0  0  0  0  0
   18.1465   -8.5563   -4.9822 N   0  0  0  0  0  0  0  0  0  0  0  0
   19.4191   -8.1673   -5.0933 O   0  0  0  0  0  0  0  0  0  0  0  0
   20.1278   -8.8694   -5.9320 O   0  0  0  0  0  0  0  0  0  0  0  0
   20.1074   -8.4377   -7.2235 C   0  0  2  0  0  0  0  0  0  0  0  0
   21.3825   -8.6922   -7.7855 O   0  0  0  0  0  0  0  0  0  0  0  0
   19.7908   -7.0130   -7.4410 C   0  0  2  0  0  0  0  0  0  0  0  0
   20.9234   -6.1487   -7.6085 N   0  0  0  0  0  0  0  0  0  0  0  0
   18.7968   -6.4135   -6.4814 C   0  0  1  0  0  0  0  0  0  0  0  0
   18.7132   -4.9874   -6.8452 N   0  0  0  0  0  0  0  0  0  0  0  0
   19.6209   -4.3763   -6.0417 O   0  0  0  0  0  0  0  0  0  0  0  0
   19.7128   -3.0555   -6.2422 N   0  0  0  0  0  0  0  0  0  0  0  0
   20.8629   -2.8564   -6.9612 O   0  0  0  0  0  0  0  0  0  0  0  0
   19.8997   -2.3729   -5.0283 N   0  0  0  0  0  0  0  0  0  0  0  0
   20.2902   -3.3844   -4.0446 C   0  0  0  0  0  3  0  0  0  0  0  0
   21.1120   -2.8009   -3.0808 O   0  0  0  0  0  0  0  0  0  0  0  0
   21.2550   -1.4476   -3.3802 C   0  0  0  0  0  2  0  0  0  0  0  0
  2  1  1  1
  2  3  1  0
  3  4  1  0
  4  5  1  6
  4  6  1  0
  6  7  1  6
  6  8  1  0
  8  9  1  1
  8 10  1  0
 10 11  1  1
 11 12  1  0
 12 13  1  0
 13 14  1  0
 14 15  1  6
 14 16  1  0
 16 17  1  0
 17 18  1  0
 18 19  1  0
 19 20  1  0
 20 21  1  1
 20 22  1  0
 22 23  1  1
 22 24  1  0
 24 25  1  6
 25 26  1  0
 26 27  1  0
 27 28  1  0
 27 29  1  0
 29 30  1  0
 30 31  1  0
 31 32  1  0
 10  2  1  0
 24 14  1  0
M  RAD  3  12   2  30   2  32   3
M  END
>  <docking_score>  (3) 
-2.831

$$$$
