
     RDKit          3D

 13 13  0  0  0  0  0  0  0  0999 V2000
    5.8147   -0.9425   -7.8470 C   0  0  0  0  0  0  0  0  0  0  0  0
    6.7867    0.1038   -8.3220 C   0  0  0  0  0  2  0  0  0  0  0  0
    6.3872    1.4096   -7.6196 C   0  0  0  0  0  0  0  0  0  0  0  0
    5.9957    0.9799   -6.1972 C   0  0  2  0  0  0  0  0  0  0  0  0
    5.9589    2.2652   -5.4046 C   0  0  0  0  0  0  0  0  0  0  0  0
    6.8926    2.5073   -4.6258 O   0  0  0  0  0  0  0  0  0  0  0  0
    7.1232    0.1695   -5.6733 C   0  0  0  0  0  0  0  0  0  0  0  0
    7.0161   -1.1672   -5.7534 O   0  0  0  0  0  0  0  0  0  0  0  0
    6.2447   -1.7286   -6.6873 C   0  0  1  0  0  0  0  0  0  0  0  0
    5.0439   -2.3913   -6.0454 C   0  0  0  0  0  0  0  0  0  0  0  0
    5.0634   -3.8478   -6.4132 C   0  0  0  0  0  0  0  0  0  0  0  0
    4.1706   -4.0514   -7.6442 C   0  0  0  0  0  0  0  0  0  0  0  0
    2.8548   -4.5755   -7.1502 C   0  0  0  0  0  0  0  0  0  0  0  0
  1  2  1  0
  2  3  1  0
  3  4  1  0
  4  5  1  1
  5  6  2  0
  4  7  1  0
  7  8  1  0
  8  9  1  0
  9 10  1  1
 10 11  1  0
 11 12  1  0
 12 13  1  0
  9  1  1  0
M  RAD  1   2   3
M  END
>  <docking_score>  (1) 
-5.3179999999999996

$$$$

     RDKit          3D

 13 13  0  0  0  0  0  0  0  0999 V2000
   15.3859   -6.1827   -4.6083 C   0  0  0  0  0  0  0  0  0  0  0  0
   14.6720   -5.9100   -5.9048 C   0  0  0  0  0  2  0  0  0  0  0  0
   13.9707   -4.5551   -5.7308 C   0  0  0  0  0  0  0  0  0  0  0  0
   14.9732   -3.6989   -4.9414 C   0  0  2  0  0  0  0  0  0  0  0  0
   14.4640   -2.2839   -5.0827 C   0  0  0  0  0  0  0  0  0  0  0  0
   14.6130   -1.5034   -4.1310 O   0  0  0  0  0  0  0  0  0  0  0  0
   16.2645   -3.7791   -5.6685 C   0  0  0  0  0  0  0  0  0  0  0  0
   17.1723   -4.6643   -5.2249 O   0  0  0  0  0  0  0  0  0  0  0  0
   16.7846   -5.7493   -4.5504 C   0  0  1  0  0  0  0  0  0  0  0  0
   17.2314   -5.6555   -3.1065 C   0  0  0  0  0  0  0  0  0  0  0  0
   18.4844   -4.8279   -3.0592 C   0  0  0  0  0  0  0  0  0  0  0  0
   18.3238   -3.7628   -1.9667 C   0  0  0  0  0  0  0  0  0  0  0  0
   16.8519   -3.5920   -1.7333 C   0  0  0  0  0  0  0  0  0  0  0  0
  1  2  1  0
  2  3  1  0
  3  4  1  0
  4  5  1  6
  5  6  2  0
  4  7  1  0
  7  8  1  0
  8  9  1  0
  9 10  1  1
 10 11  1  0
 11 12  1  0
 12 13  1  0
  9  1  1  0
M  RAD  1   2   3
M  END
>  <docking_score>  (2) 
-4.1150000000000002

$$$$

     RDKit          3D

 13 13  0  0  0  0  0  0  0  0999 V2000
   16.1463   -3.5695   -4.1396 C   0  0  0  0  0  0  0  0  0  0  0  0
   16.4366   -4.2597   -2.8341 C   0  0  0  0  0  2  0  0  0  0  0  0
   17.7977   -3.7283   -2.3621 C   0  0  0  0  0  0  0  0  0  0  0  0
   17.7754   -2.2342   -2.7206 C   0  0  2  0  0  0  0  0  0  0  0  0
   18.9263   -1.6366   -1.9462 C   0  0  0  0  0  0  0  0  0  0  0  0
   19.5332   -0.6733   -2.4370 O   0  0  0  0  0  0  0  0  0  0  0  0
   16.5228   -1.6796   -2.1497 C   0  0  0  0  0  0  0  0  0  0  0  0
   15.4676   -1.5564   -2.9718 O   0  0  0  0  0  0  0  0  0  0  0  0
   15.3524   -2.3413   -4.0457 C   0  0  1  0  0  0  0  0  0  0  0  0
   15.5204   -1.5259   -5.3106 C   0  0  0  0  0  0  0  0  0  0  0  0
   16.3926   -2.3042   -6.2543 C   0  0  0  0  0  0  0  0  0  0  0  0
   15.7383   -2.2949   -7.6421 C   0  0  0  0  0  0  0  0  0  0  0  0
   15.1187   -3.6459   -7.8442 C   0  0  0  0  0  0  0  0  0  0  0  0
  1  2  1  0
  2  3  1  0
  3  4  1  0
  4  5  1  1
  5  6  2  0
  4  7  1  0
  7  8  1  0
  8  9  1  0
  9 10  1  6
 10 11  1  0
 11 12  1  0
 12 13  1  0
  9  1  1  0
M  RAD  1   2   3
M  END
>  <docking_score>  (3) 
-4.0810000000000004

$$$$
