
     RDKit          3D

 24 25  0  0  0  0  0  0  0  0999 V2000
   14.3781   -0.8370   -4.0339 C   0  0  0  0  0  0  0  0  0  0  0  0
   14.9308   -1.5605   -5.2355 C   0  0  0  0  0  0  0  0  0  0  0  0
   14.6216   -3.0324   -5.0637 C   0  0  0  0  0  0  0  0  0  0  0  0
   16.4266   -1.3503   -5.2638 C   0  0  0  0  0  0  0  0  0  0  0  0
   17.1752   -2.5801   -4.7927 C   0  0  1  0  0  0  0  0  0  0  0  0
   18.1252   -2.9928   -5.8977 C   0  0  0  0  0  0  0  0  0  0  0  0
   17.3992   -3.3127   -7.1787 C   0  0  1  0  0  0  0  0  0  0  0  0
   17.8960   -2.3224   -8.2308 C   0  0  0  0  0  0  0  0  0  0  0  0
   17.8840   -4.6875   -7.6276 C   0  0  0  0  0  3  0  0  0  0  0  0
   17.0120   -5.7881   -7.1123 C   0  0  0  0  0  0  0  0  0  0  0  0
   17.9334   -6.9657   -6.7695 C   0  0  0  0  0  0  0  0  0  0  0  0
   17.7151   -7.2786   -5.3153 C   0  0  1  0  0  0  0  0  0  0  0  0
   16.5837   -8.2567   -5.1987 C   0  0  0  0  0  0  0  0  0  0  0  0
   17.0909   -9.6150   -5.6017 C   0  0  0  0  0  0  0  0  0  0  0  0
   18.9399   -7.7414   -4.6322 C   0  0  0  0  0  0  0  0  0  0  0  0
   19.6801   -6.9659   -3.9235 N   0  0  0  0  0  3  0  0  0  0  0  0
   19.3575   -5.5612   -3.7438 C   0  0  0  0  0  0  0  0  0  0  0  0
   17.9376   -5.4567   -3.3214 C   0  0  0  0  0  0  0  0  0  0  0  0
   17.3928   -4.3964   -2.7949 C   0  0  0  0  0  0  0  0  0  0  0  0
   16.0532   -4.3785   -2.4251 O   0  0  0  0  0  0  0  0  0  0  0  0
   18.1907   -3.1482   -2.5656 C   0  0  2  0  0  0  0  0  0  0  0  0
   17.3972   -1.8703   -2.3042 C   0  0  0  0  0  0  0  0  0  0  0  0
   18.0435   -2.1429   -3.6181 C   0  0  2  0  0  0  0  0  0  0  0  0
   19.2000   -1.2687   -4.0371 C   0  0  0  0  0  1  0  0  0  0  0  0
  1  2  1  0
  2  3  1  0
  2  4  1  0
  5  4  1  6
  5  6  1  0
  6  7  1  0
  7  8  1  6
  7  9  1  0
  9 10  1  0
 10 11  1  0
 11 12  1  0
 12 13  1  6
 13 14  1  0
 12 15  1  0
 15 16  2  3
 16 17  1  0
 17 18  1  0
 18 19  2  3
 19 20  1  0
 19 21  1  0
 21 22  1  1
 22 23  1  0
 23 24  1  6
 23  5  1  0
 23 21  1  0
M  CHG  1  16   1
M  RAD  3   9   2  16   2  24   2
M  END
>  <docking_score>  (1) 
-5.6159999999999997

$$$$

     RDKit          3D

 24 25  0  0  0  0  0  0  0  0999 V2000
   19.3664    0.1762   -5.4465 C   0  0  0  0  0  0  0  0  0  0  0  0
   19.7959   -1.0967   -4.7624 C   0  0  0  0  0  0  0  0  0  0  0  0
   19.7695   -2.2017   -5.7967 C   0  0  0  0  0  0  0  0  0  0  0  0
   18.8033   -1.3980   -3.6641 C   0  0  0  0  0  0  0  0  0  0  0  0
   17.9332   -2.5901   -4.0056 C   0  0  1  0  0  0  0  0  0  0  0  0
   18.1039   -3.6158   -2.9043 C   0  0  0  0  0  0  0  0  0  0  0  0
   19.5349   -4.0673   -2.7676 C   0  0  1  0  0  0  0  0  0  0  0  0
   19.9920   -3.6778   -1.3626 C   0  0  0  0  0  0  0  0  0  0  0  0
   19.5203   -5.5921   -2.8017 C   0  0  0  0  0  3  0  0  0  0  0  0
   19.7111   -6.1264   -4.1856 C   0  0  0  0  0  0  0  0  0  0  0  0
   18.8202   -7.3687   -4.3124 C   0  0  0  0  0  0  0  0  0  0  0  0
   17.8882   -7.1186   -5.4653 C   0  0  1  0  0  0  0  0  0  0  0  0
   18.5501   -7.5846   -6.7282 C   0  0  0  0  0  0  0  0  0  0  0  0
   17.9790   -8.9285   -7.0922 C   0  0  0  0  0  0  0  0  0  0  0  0
   16.5517   -7.7158   -5.2697 C   0  0  0  0  0  0  0  0  0  0  0  0
   15.5406   -7.0430   -4.8496 N   0  0  0  0  0  3  0  0  0  0  0  0
   15.6453   -5.6291   -4.5340 C   0  0  0  0  0  0  0  0  0  0  0  0
   16.2911   -4.9398   -5.6799 C   0  0  0  0  0  0  0  0  0  0  0  0
   16.2843   -3.6512   -5.8744 C   0  0  0  0  0  0  0  0  0  0  0  0
   16.9137   -3.0818   -6.9750 O   0  0  0  0  0  0  0  0  0  0  0  0
   15.5953   -2.7268   -4.9163 C   0  0  2  0  0  0  0  0  0  0  0  0
   15.9550   -1.2466   -5.0191 C   0  0  0  0  0  0  0  0  0  0  0  0
   16.4867   -2.1140   -3.9313 C   0  0  2  0  0  0  0  0  0  0  0  0
   16.0298   -1.8441   -2.5187 C   0  0  0  0  0  1  0  0  0  0  0  0
  1  2  1  0
  2  3  1  0
  2  4  1  0
  5  4  1  1
  5  6  1  0
  6  7  1  0
  7  8  1  1
  7  9  1  0
  9 10  1  0
 10 11  1  0
 11 12  1  0
 12 13  1  6
 13 14  1  0
 12 15  1  0
 15 16  2  3
 16 17  1  0
 17 18  1  0
 18 19  2  3
 19 20  1  0
 19 21  1  0
 21 22  1  6
 22 23  1  0
 23 24  1  1
 23  5  1  0
 23 21  1  0
M  CHG  1  16   1
M  RAD  3   9   2  16   2  24   2
M  END
>  <docking_score>  (2) 
-5.21

$$$$

     RDKit          3D

 24 25  0  0  0  0  0  0  0  0999 V2000
   20.2046   -1.8997   -5.6639 C   0  0  0  0  0  0  0  0  0  0  0  0
   19.3792   -0.6684   -5.9388 C   0  0  0  0  0  0  0  0  0  0  0  0
   19.9060    0.4408   -5.0536 C   0  0  0  0  0  0  0  0  0  0  0  0
   17.9442   -0.9745   -5.5789 C   0  0  0  0  0  0  0  0  0  0  0  0
   17.6101   -2.4357   -5.7982 C   0  0  1  0  0  0  0  0  0  0  0  0
   16.8865   -2.9332   -4.5641 C   0  0  0  0  0  0  0  0  0  0  0  0
   17.7269   -2.7963   -3.3211 C   0  0  1  0  0  0  0  0  0  0  0  0
   16.9817   -1.8485   -2.3825 C   0  0  0  0  0  0  0  0  0  0  0  0
   17.7255   -4.1594   -2.6366 C   0  0  0  0  0  3  0  0  0  0  0  0
   18.8824   -5.0055   -3.0640 C   0  0  0  0  0  0  0  0  0  0  0  0
   18.3731   -6.4500   -3.1488 C   0  0  0  0  0  0  0  0  0  0  0  0
   18.6221   -6.9161   -4.5563 C   0  0  1  0  0  0  0  0  0  0  0  0
   20.0013   -7.5013   -4.6318 C   0  0  0  0  0  0  0  0  0  0  0  0
   20.5562   -7.2262   -6.0033 C   0  0  0  0  0  0  0  0  0  0  0  0
   17.5836   -7.8414   -5.0524 C   0  0  0  0  0  0  0  0  0  0  0  0
   16.6067   -7.4615   -5.7960 N   0  0  0  0  0  3  0  0  0  0  0  0
   16.4558   -6.0760   -6.2049 C   0  0  0  0  0  0  0  0  0  0  0  0
   17.7498   -5.6088   -6.7641 C   0  0  0  0  0  0  0  0  0  0  0  0
   17.9056   -4.5344   -7.4851 C   0  0  0  0  0  0  0  0  0  0  0  0
   19.1534   -4.1644   -7.9727 O   0  0  0  0  0  0  0  0  0  0  0  0
   16.7420   -3.6504   -7.8193 C   0  0  2  0  0  0  0  0  0  0  0  0
   17.0742   -2.2514   -8.3328 C   0  0  0  0  0  0  0  0  0  0  0  0
   16.6017   -2.4893   -6.9405 C   0  0  2  0  0  0  0  0  0  0  0  0
   15.2440   -1.9591   -6.5497 C   0  0  0  0  0  1  0  0  0  0  0  0
  1  2  1  0
  2  3  1  0
  2  4  1  0
  5  4  1  1
  5  6  1  0
  6  7  1  0
  7  8  1  1
  7  9  1  0
  9 10  1  0
 10 11  1  0
 11 12  1  0
 12 13  1  1
 13 14  1  0
 12 15  1  0
 15 16  2  3
 16 17  1  0
 17 18  1  0
 18 19  2  3
 19 20  1  0
 19 21  1  0
 21 22  1  6
 22 23  1  0
 23 24  1  1
 23  5  1  0
 23 21  1  0
M  CHG  1  16   1
M  RAD  3   9   2  16   2  24   2
M  END
>  <docking_score>  (3) 
-5.0289999999999999

$$$$
