
     RDKit          3D

 76 81  0  0  0  0  0  0  0  0999 V2000
   15.2233   15.0572   14.1484 C   0  0  0  0  0  0  0  0  0  0  0  0
   13.8855   15.7569   14.3869 C   0  0  0  0  0  3  0  0  0  0  0  0
   13.1067   14.9133   15.3268 C   0  0  2  0  0  0  0  0  0  0  0  0
   13.5571   15.1464   16.7685 C   0  0  2  0  0  0  0  0  0  0  0  0
   14.9219   15.4507   16.8506 O   0  0  0  0  0  0  0  0  0  0  0  0
   13.1927   14.0023   17.6778 C   0  0  0  0  0  0  0  0  0  0  0  0
   14.1497   12.9874   17.7139 O   0  0  0  0  0  0  0  0  0  0  0  0
   13.7809   12.0974   16.8041 O   0  0  0  0  0  0  0  0  0  0  0  0
   14.1385   12.6454   15.5706 C   0  0  1  0  0  0  0  0  0  0  0  0
   14.6023   11.6702   14.6757 O   0  0  0  0  0  0  0  0  0  0  0  0
   13.0355   13.4515   14.9771 C   0  0  1  0  0  0  0  0  0  0  0  0
   11.7288   12.9045   15.1371 N   0  0  0  0  0  0  0  0  0  0  0  0
   11.0093   12.9684   13.8287 C   0  0  1  0  0  0  0  0  0  0  0  0
   10.9170   11.7157   13.1849 C   0  0  0  0  0  0  0  0  0  0  0  0
   10.7309   12.0455   11.6305 C   0  0  2  0  0  0  0  0  0  0  0  0
   10.1068   10.9730   11.0992 O   0  0  0  0  0  0  0  0  0  0  0  0
   12.1692   12.2036   11.2101 C   0  0  0  0  0  0  0  0  0  0  0  0
   12.5129   13.4378   10.7271 O   0  0  0  0  0  0  0  0  0  0  0  0
   10.1030   13.3788   11.5960 C   0  0  1  0  0  0  0  0  0  0  0  0
    9.4800   13.4423   10.3370 O   0  0  0  0  0  0  0  0  0  0  0  0
    9.0786   13.6816   12.6531 C   0  0  2  0  0  0  0  0  0  0  0  0
    8.7095   15.0320   12.4046 O   0  0  0  0  0  0  0  0  0  0  0  0
    9.7001   13.7388   14.1151 C   0  0  1  0  0  0  0  0  0  0  0  0
    8.9426   12.7994   14.9212 O   0  0  0  0  0  0  0  0  0  0  0  0
    7.7137   13.0823   15.0098 O   0  0  0  0  0  0  0  0  0  0  0  0
    6.9193   13.4302   14.0657 O   0  0  0  0  0  0  0  0  0  0  0  0
    7.6122   14.6983   13.6507 C   0  0  2  0  0  0  0  0  0  0  0  0
    8.5637   14.5924   14.7928 O   0  0  0  0  0  0  0  0  0  0  0  0
    6.6070   15.6034   14.2620 O   0  0  0  0  0  0  0  0  0  0  0  0
    5.4326   15.1690   13.6353 C   0  0  0  0  0  3  0  0  0  0  0  0
    5.2548   13.7832   13.3075 C   0  0  1  0  0  0  0  0  0  0  0  0
    3.7759   13.5112   12.3224 S   0  0  0  0  0  0  0  0  0  0  0  0
    3.8144   11.6409   11.3403 S   0  0  0  0  0  0  0  0  0  0  0  0
    5.2381   11.4096   10.2999 C   0  0  1  0  0  0  0  0  0  0  0  0
    6.3870   11.2362   11.0334 O   0  0  0  0  0  0  0  0  0  0  0  0
    6.0837   10.6672   12.1835 O   0  0  0  0  0  0  0  0  0  0  0  0
    6.3816    9.3438   12.0113 C   0  0  0  0  0  3  0  0  0  0  0  0
    5.1719    8.5581   11.5410 C   0  0  0  0  0  0  0  0  0  0  0  0
    5.2294    8.3584   10.0440 C   0  0  0  0  0  0  0  0  0  0  0  0
    3.9640    8.5156    9.4452 O   0  0  0  0  0  0  0  0  0  0  0  0
    3.7735    9.8208    9.1468 C   0  0  1  0  0  0  0  0  0  0  0  0
    5.0482   10.5990    9.0905 C   0  0  1  0  0  0  0  0  0  0  0  0
    5.4221   11.1640    7.7804 C   0  0  0  0  0  2  0  0  0  0  0  0
    6.4476   13.4495   12.6358 O   0  0  0  0  0  0  0  0  0  0  0  0
    6.5126   14.4056   11.5959 C   0  0  0  0  0  0  0  0  0  0  0  0
    5.8218   14.0605   10.5559 O   0  0  0  0  0  0  0  0  0  0  0  0
    5.3520   14.8358    9.6255 C   0  0  0  0  0  3  0  0  0  0  0  0
    4.6459   14.2410    8.4636 C   0  0  0  0  0  0  0  0  0  0  0  0
    3.2918   14.1052    8.7227 O   0  0  0  0  0  0  0  0  0  0  0  0
    2.6598   13.5676    7.6958 O   0  0  0  0  0  0  0  0  0  0  0  0
    2.2911   12.2660    8.0314 C   0  0  0  0  0  0  0  0  0  0  0  0
    3.2631   11.3627    7.5011 O   0  0  0  0  0  0  0  0  0  0  0  0
    2.7907   10.0486    7.9640 C   0  0  1  0  0  0  0  0  0  0  0  0
    3.2202    9.2170    6.8898 O   0  0  0  0  0  0  0  0  0  0  0  0
    4.5220    9.2583    6.7540 C   0  0  0  0  0  0  0  0  0  0  0  0
    5.3078    8.1934    6.6435 O   0  0  0  0  0  0  0  0  0  0  0  0
    5.0539    7.0720    5.8361 C   0  0  2  0  0  0  0  0  0  0  0  0
    6.4527    6.7763    5.4043 O   0  0  0  0  0  0  0  0  0  0  0  0
    4.7427    7.9022    4.5746 O   0  0  0  0  0  0  0  0  0  0  0  0
    4.3553    9.0662    4.9821 O   0  0  0  0  0  0  0  0  0  0  0  0
    3.9189   10.0044    4.3805 O   0  0  0  0  0  0  0  0  0  0  0  0
    4.7091   10.3028    3.1892 C   0  0  2  0  0  0  0  0  0  0  0  0
    4.0421    9.7805    2.0998 O   0  0  0  0  0  0  0  0  0  0  0  0
    3.7413    8.4641    2.1248 C   0  0  1  0  0  0  0  0  0  0  0  0
    4.7912    7.7617    1.5048 O   0  0  0  0  0  0  0  0  0  0  0  0
    3.4245    7.9368    3.5014 C   0  0  0  0  0  0  0  0  0  0  0  0
    4.4968    7.1876    3.9843 O   0  0  0  0  0  0  0  0  0  0  0  0
    5.3854    8.0891    4.5669 C   0  0  0  0  0  3  0  0  0  0  0  0
    6.2596    8.5239    3.5725 O   0  0  0  0  0  0  0  0  0  0  0  0
    6.1000    9.8840    3.3095 C   0  0  1  0  0  0  0  0  0  0  0  0
    6.7179   10.1894    2.0804 O   0  0  0  0  0  0  0  0  0  0  0  0
    6.4365   11.4413    1.7876 O   0  0  0  0  0  0  0  0  0  0  0  0
    6.0512   12.2258    2.8396 C   0  0  0  0  0  0  0  0  0  0  0  0
    4.5506   11.8411    3.2120 C   0  0  1  0  0  0  0  0  0  0  0  0
    3.8663   12.0687    1.9536 O   0  0  0  0  0  0  0  0  0  0  0  0
    2.6334   12.5408    2.4359 N   0  0  0  0  0  0  0  0  0  0  0  0
  1  2  1  0
  3  2  1  6
  3  4  1  0
  4  5  1  6
  4  6  1  0
  6  7  1  0
  7  8  1  0
  8  9  1  0
  9 10  1  6
  9 11  1  0
 11 12  1  1
 13 12  1  1
 13 14  1  0
 14 15  1  0
 15 16  1  6
 15 17  1  0
 17 18  1  0
 15 19  1  0
 19 20  1  6
 19 21  1  0
 21 22  1  6
 21 23  1  0
 23 24  1  1
 24 25  1  0
 25 26  1  0
 26 27  1  0
 27 28  1  1
 27 29  1  0
 29 30  1  0
 31 30  1  6
 31 32  1  0
 32 33  1  0
 33 34  1  0
 34 35  1  1
 35 36  1  0
 36 37  1  0
 37 38  1  0
 38 39  1  0
 39 40  1  0
 41 40  1  6
 41 42  1  0
 42 43  1  6
 31 44  1  0
 44 45  1  0
 45 46  1  0
 46 47  1  0
 47 48  1  0
 48 49  1  0
 49 50  1  0
 50 51  1  0
 51 52  1  0
 52 53  1  0
 53 54  1  6
 54 55  1  0
 55 56  1  0
 56 57  1  0
 57 58  1  6
 57 59  1  0
 59 60  1  0
 60 61  1  0
 62 61  1  1
 62 63  1  0
 63 64  1  0
 64 65  1  1
 64 66  1  0
 66 67  1  0
 67 68  1  0
 68 69  1  0
 70 69  1  6
 70 71  1  0
 71 72  1  0
 72 73  1  0
 73 74  1  0
 74 75  1  6
 75 76  1  0
 11  3  1  0
 23 13  1  0
 42 34  1  0
 53 41  1  0
 70 62  1  0
 74 62  1  0
M  RAD  6   2   2  30   2  37   2  43   3  47   2  68   2
M  END
>  <docking_score>  (1) 
12.878

$$$$
