
     RDKit          3D

 55 54  0  0  0  0  0  0  0  0999 V2000
   20.7240   -1.9947   -0.3257 O   0  0  0  0  0  0  0  0  0  0  0  0
   20.0009   -2.6024   -1.3540 C   0  0  0  0  0  0  0  0  0  0  0  0
   20.5447   -2.3296   -2.6915 C   0  0  0  0  0  0  0  0  0  0  0  0
   20.4793   -3.2351   -3.6352 C   0  0  0  0  0  0  0  0  0  0  0  0
   20.9870   -3.0530   -4.9773 C   0  0  0  0  0  0  0  0  0  0  0  0
   20.1237   -3.1370   -5.9901 C   0  0  0  0  0  0  0  0  0  0  0  0
   20.6792   -2.9491   -7.2864 N   0  0  0  0  0  0  0  0  0  0  0  0
   20.3435   -1.7189   -7.9954 C   0  0  0  0  0  3  0  0  0  0  0  0
   19.1520   -1.1810   -7.5513 O   0  0  0  0  0  0  0  0  0  0  0  0
   18.1580   -2.0981   -7.4139 C   0  0  2  0  0  0  0  0  0  0  0  0
   17.4940   -2.3712   -8.7184 C   0  0  0  0  0  0  0  0  0  0  0  0
   17.2955   -1.8757   -6.3853 O   0  0  0  0  0  0  0  0  0  0  0  0
   16.0271   -1.4854   -6.8416 C   0  0  1  0  0  0  0  0  0  0  0  0
   15.5854   -2.5273   -7.8791 C   0  0  0  0  0  2  0  0  0  0  0  0
   14.8603   -1.5397   -5.4802 S   0  0  0  0  0  3  0  0  0  0  0  0
   13.3853   -2.2560   -5.9135 N   0  0  0  0  0  0  0  0  0  0  0  0
   15.5875   -2.1655   -4.0112 C   0  0  0  0  0  3  0  0  0  0  0  0
   14.8015   -3.1564   -3.4734 O   0  0  0  0  0  0  0  0  0  0  0  0
   18.7172   -3.4051   -5.7652 C   0  0  0  0  0  0  0  0  0  0  0  0
   18.2755   -4.6386   -5.8333 C   0  0  0  0  0  0  0  0  0  0  0  0
   19.1900   -5.6829   -6.1271 N   0  0  0  0  0  3  0  0  0  0  0  0
   19.4978   -6.4962   -4.9915 C   0  0  0  0  0  0  0  0  0  0  0  0
   18.5787   -6.4293   -7.2021 C   0  0  0  0  0  0  0  0  0  0  0  0
   17.3263   -6.1190   -7.4985 C   0  0  0  0  0  0  0  0  0  0  0  0
   16.0850   -5.7541   -7.6539 C   0  0  0  0  0  0  0  0  0  0  0  0
   15.1110   -6.1742   -6.6578 C   0  0  0  0  0  0  0  0  0  0  0  0
   13.7378   -5.5861   -6.6403 C   0  0  0  0  0  0  0  0  0  0  0  0
   15.4736   -7.0853   -5.7746 C   0  0  0  0  0  0  0  0  0  0  0  0
   16.8126   -7.6304   -5.8251 C   0  0  0  0  0  0  0  0  0  0  0  0
   16.9847   -8.8850   -6.1705 C   0  0  0  0  0  0  0  0  0  0  0  0
   15.8804   -9.6575   -6.4785 O   0  0  0  0  0  0  0  0  0  0  0  0
   14.8195   -9.5181   -5.6422 O   0  0  0  0  0  0  0  0  0  0  0  0
   15.4053   -9.3915   -4.3611 C   0  0  2  0  0  0  0  0  0  0  0  0
   16.6947  -10.2140   -4.3454 C   0  0  0  0  0  0  0  0  0  0  0  0
   14.5066   -9.9988   -3.4667 O   0  0  0  0  0  0  0  0  0  0  0  0
   13.1434   -9.9706   -3.6889 C   0  0  0  0  0  0  0  0  0  0  0  0
   12.6021  -10.6321   -4.6767 C   0  0  0  0  0  0  0  0  0  0  0  0
   13.3954  -11.3781   -5.5227 O   0  0  0  0  0  0  0  0  0  0  0  0
   11.1472  -10.5900   -4.8973 C   0  0  0  0  0  0  0  0  0  0  0  0
   10.6374  -11.9044   -4.8485 O   0  0  0  0  0  0  0  0  0  0  0  0
    9.5582  -12.1671   -4.0255 C   0  0  0  0  0  0  0  0  0  0  0  0
    8.3031  -12.1354   -4.3650 C   0  0  0  0  0  0  0  0  0  0  0  0
    7.9098  -11.7927   -5.7485 C   0  0  0  0  0  0  0  0  0  0  0  0
    6.5526  -11.9810   -5.9637 O   0  0  0  0  0  0  0  0  0  0  0  0
    5.8298  -11.0503   -5.2014 C   0  0  2  0  0  0  0  0  0  0  0  0
    5.0940  -11.7005   -4.0685 C   0  0  0  0  0  0  0  0  0  0  0  0
    4.8984  -10.4040   -6.1081 N   0  0  0  0  0  0  0  0  0  0  0  0
   18.2289   -9.4900   -6.2452 O   0  0  0  0  0  0  0  0  0  0  0  0
   18.7915   -9.9259   -7.4685 C   0  0  1  0  0  0  0  0  0  0  0  0
   17.7421  -10.5371   -8.3744 C   0  0  0  0  0  0  0  0  0  0  0  0
   19.4156   -8.8168   -8.2174 C   0  0  0  0  0  0  0  0  0  0  0  0
   20.5675   -8.3089   -7.8606 C   0  0  0  0  0  0  0  0  0  0  0  0
   21.0954   -7.2310   -8.6516 N   0  0  0  0  0  1  0  0  0  0  0  0
   21.2912   -8.7935   -6.7288 N   0  0  0  0  0  3  0  0  0  0  0  0
   20.6233   -9.2339   -5.7276 N   0  0  0  0  0  2  0  0  0  0  0  0
  1  2  1  0
  2  3  1  0
  3  4  2  3
  4  5  1  0
  5  6  2  3
  6  7  1  0
  7  8  1  0
  8  9  1  0
  9 10  1  0
 10 11  1  6
 10 12  1  0
 12 13  1  0
 13 14  1  6
 13 15  1  0
 15 16  1  6
 15 17  1  0
 17 18  1  0
  6 19  1  0
 19 20  2  3
 20 21  1  0
 21 22  1  0
 21 23  1  0
 23 24  2  0
 24 25  2  0
 25 26  1  0
 26 27  1  0
 26 28  2  3
 28 29  1  0
 29 30  2  3
 30 31  1  0
 31 32  1  0
 32 33  1  0
 33 34  1  6
 33 35  1  0
 35 36  1  0
 36 37  2  3
 37 38  1  0
 37 39  1  0
 39 40  1  0
 40 41  1  0
 41 42  2  3
 42 43  1  0
 43 44  1  0
 44 45  1  0
 45 46  1  1
 45 47  1  0
 30 48  1  0
 48 49  1  0
 49 50  1  6
 49 51  1  0
 51 52  2  3
 52 53  1  0
 52 54  1  0
 54 55  2  0
M  CHG  5  15   1  21   1  53   1  54   1  55  -1
M  RAD  6   8   2  14   3  17   2  21   2  53   2  54   2
M  END
>  <docking_score>  (1) 
25.504999999999999

$$$$
