
     RDKit          3D

 56 58  0  0  0  0  0  0  0  0999 V2000
   15.8638   -5.6224    2.5732 C   0  0  0  0  0  0  0  0  0  0  0  0
   16.2533   -6.2273    1.2985 C   0  0  0  0  0  0  0  0  0  0  0  0
   16.4000   -5.5291    0.1780 C   0  0  0  0  0  0  0  0  0  0  0  0
   16.7650   -6.0944   -1.0173 O   0  0  0  0  0  0  0  0  0  0  0  0
   17.0718   -7.4381   -1.2536 C   0  0  0  0  0  0  0  0  0  0  0  0
   18.0445   -7.6054   -2.3549 C   0  0  0  0  0  0  0  0  0  0  0  0
   18.7479   -6.5720   -2.9313 C   0  0  0  0  0  0  0  0  0  0  0  0
   19.6496   -6.7720   -3.9618 C   0  0  0  0  0  0  0  0  0  0  0  0
   19.8782   -8.0383   -4.4559 C   0  0  0  0  0  0  0  0  0  0  0  0
   21.0234   -8.3101   -5.7658 Cl  0  0  0  0  0  0  0  0  0  0  0  0
   19.1758   -9.0776   -3.8820 C   0  0  0  0  0  0  0  0  0  0  0  0
   18.2675   -8.8857   -2.8457 C   0  0  0  0  0  0  0  0  0  0  0  0
   17.5890   -9.9118   -2.2961 F   0  0  0  0  0  0  0  0  0  0  0  0
   16.1550   -4.1014    0.2561 C   0  0  0  0  0  0  0  0  0  0  0  0
   15.7476   -3.5729    1.3788 C   0  0  0  0  0  0  0  0  0  0  0  0
   15.5072   -2.1448    1.4418 C   0  0  0  0  0  0  0  0  0  0  0  0
   15.8838   -1.3285    0.4842 C   0  0  0  0  0  0  0  0  0  0  0  0
   16.5795   -1.7482   -0.7427 C   0  0  2  0  0  0  0  0  0  0  0  0
   18.0580   -1.9109   -0.3792 C   0  0  0  0  0  0  0  0  0  0  0  0
   16.4721   -0.7600   -1.8408 C   0  0  0  0  0  0  0  0  0  0  0  0
   17.3028   -0.7292   -2.8588 C   0  0  0  0  0  0  0  0  0  0  0  0
   17.0861    0.2726   -3.8446 N   0  0  0  0  0  0  0  0  0  0  0  0
   18.4354   -1.6714   -3.0236 C   0  0  0  0  0  0  0  0  0  0  0  0
   18.8349   -1.7084   -4.4581 C   0  0  0  0  0  0  0  0  0  0  0  0
   17.6821   -1.7205   -5.3918 C   0  0  0  0  0  0  0  0  0  0  0  0
   16.7629   -2.6591   -5.2952 C   0  0  0  0  0  0  0  0  0  0  0  0
   15.5257   -2.9168   -6.0756 C   0  0  0  0  0  0  0  0  0  0  0  0
   14.7984   -1.6750   -6.4327 C   0  0  0  0  0  0  0  0  0  0  0  0
   15.1927   -0.4801   -6.8228 C   0  0  0  0  0  0  0  0  0  0  0  0
   16.6104   -0.1011   -7.0011 C   0  0  0  0  0  0  0  0  0  0  0  0
   17.6694   -0.6474   -6.3753 C   0  0  0  0  0  0  0  0  0  0  0  0
   14.1425    0.5086   -7.0854 C   0  0  0  0  0  0  0  0  0  0  0  0
   14.5785    1.7248   -7.7398 C   0  0  0  0  0  0  0  0  0  0  0  0
   15.1653    2.7608   -7.0651 C   0  0  0  0  0  0  0  0  0  0  0  0
   16.2172    3.2573   -6.6043 C   0  0  0  0  0  0  0  0  0  0  0  0
   16.1154    4.5891   -5.8915 C   0  0  0  0  0  0  0  0  0  0  0  0
   17.5546    2.6994   -6.6550 C   0  0  0  0  0  0  0  0  0  0  0  0
   18.5603    3.0855   -5.9037 C   0  0  0  0  0  0  0  0  0  0  0  0
   18.3411    4.3580   -4.7373 Cl  0  0  0  0  0  0  0  0  0  0  0  0
   19.8771    2.4291   -6.0587 C   0  0  0  0  0  0  0  0  0  0  0  0
   20.9222    3.4094   -5.5262 C   0  0  0  0  0  0  0  0  0  0  0  0
   21.1414    4.5085   -6.4777 C   0  0  0  0  0  0  0  0  0  0  0  0
   21.3387    5.7065   -6.1016 N   0  0  0  0  0  0  0  0  0  0  0  0
   21.3814    6.1676   -4.8272 O   0  0  0  0  0  0  0  0  0  0  0  0
   20.3312    5.9077   -3.8840 C   0  0  0  0  0  0  0  0  0  0  0  0
   19.8282    7.1905   -3.3189 C   0  0  0  0  0  0  0  0  0  0  0  0
   20.0184    8.2943   -4.0511 C   0  0  0  0  0  0  0  0  0  0  0  0
   19.6167    9.6509   -3.7077 C   0  0  0  0  0  0  0  0  0  0  0  0
   19.4011   10.1152   -2.4867 C   0  0  0  0  0  0  0  0  0  0  0  0
   19.4872    9.4735   -1.1730 C   0  0  0  0  0  0  0  0  0  0  0  0
   19.0631    8.0633   -1.1475 C   0  0  0  0  0  0  0  0  0  0  0  0
   19.1815    7.0731   -2.0154 C   0  0  0  0  0  0  0  0  0  0  0  0
   18.6704    5.8216   -1.7054 O   0  0  0  0  0  0  0  0  0  0  0  0
   18.1062    4.8563   -3.0331 Cl  0  0  0  0  0  0  0  0  0  0  0  0
   18.9947   11.5572   -2.4261 C   0  0  0  0  0  0  0  0  0  0  0  0
   18.1626   11.8050   -1.3648 F   0  0  0  0  0  0  0  0  0  0  0  0
  1  2  1  0
  2  3  2  3
  3  4  1  0
  4  5  1  0
  5  6  1  0
  6  7  2  0
  7  8  1  0
  8  9  2  0
  9 10  1  0
  9 11  1  0
 11 12  2  0
 12 13  1  0
  3 14  1  0
 14 15  2  3
 15 16  1  0
 16 17  2  3
 17 18  1  0
 18 19  1  1
 18 20  1  0
 20 21  2  3
 21 22  1  0
 21 23  1  0
 23 24  1  0
 24 25  1  0
 25 26  2  0
 26 27  1  0
 27 28  1  0
 28 29  2  0
 29 30  1  0
 30 31  2  0
 29 32  1  0
 32 33  1  0
 33 34  1  0
 34 35  2  3
 35 36  1  0
 35 37  1  0
 37 38  2  3
 38 39  1  0
 38 40  1  0
 40 41  1  0
 41 42  1  0
 42 43  2  3
 43 44  1  0
 44 45  1  0
 45 46  1  0
 46 47  2  0
 47 48  1  0
 48 49  2  0
 49 50  1  0
 50 51  1  0
 51 52  2  0
 52 53  1  0
 53 54  1  0
 49 55  1  0
 55 56  1  0
 12  6  1  0
 31 25  1  0
 52 46  1  0
M  END
>  <docking_score>  (1) 
51.353000000000002

$$$$

     RDKit          3D

 56 58  0  0  0  0  0  0  0  0999 V2000
    5.2453    9.0344    5.9530 C   0  0  0  0  0  0  0  0  0  0  0  0
    5.3829    8.1278    4.8121 C   0  0  0  0  0  0  0  0  0  0  0  0
    4.5043    7.1709    4.5347 C   0  0  0  0  0  0  0  0  0  0  0  0
    4.6319    6.3205    3.4660 O   0  0  0  0  0  0  0  0  0  0  0  0
    5.8014    6.0307    2.7563 C   0  0  0  0  0  0  0  0  0  0  0  0
    6.1296    7.0783    1.7653 C   0  0  0  0  0  0  0  0  0  0  0  0
    5.6885    8.3802    1.8390 C   0  0  0  0  0  0  0  0  0  0  0  0
    6.0188    9.3304    0.8886 C   0  0  0  0  0  0  0  0  0  0  0  0
    6.8165    8.9984   -0.1853 C   0  0  0  0  0  0  0  0  0  0  0  0
    7.2471   10.1961   -1.4024 Cl  0  0  0  0  0  0  0  0  0  0  0  0
    7.2612    7.6951   -0.2640 C   0  0  0  0  0  0  0  0  0  0  0  0
    6.9341    6.7333    0.6867 C   0  0  0  0  0  0  0  0  0  0  0  0
    7.3766    5.4640    0.5950 F   0  0  0  0  0  0  0  0  0  0  0  0
    3.3657    7.0456    5.4247 C   0  0  0  0  0  0  0  0  0  0  0  0
    3.5570    6.9260    6.7111 C   0  0  0  0  0  0  0  0  0  0  0  0
    2.4095    6.8021    7.5881 C   0  0  0  0  0  0  0  0  0  0  0  0
    2.2605    7.5516    8.6563 C   0  0  0  0  0  0  0  0  0  0  0  0
    3.2143    8.5856    9.0882 C   0  0  2  0  0  0  0  0  0  0  0  0
    4.2777    8.6921    7.9917 C   0  0  0  0  0  0  0  0  0  0  0  0
    3.8886    8.2596   10.3661 C   0  0  0  0  0  0  0  0  0  0  0  0
    4.0169    9.1240   11.3478 C   0  0  0  0  0  0  0  0  0  0  0  0
    4.6866    8.6805   12.5211 N   0  0  0  0  0  0  0  0  0  0  0  0
    3.5070   10.5148   11.2893 C   0  0  0  0  0  0  0  0  0  0  0  0
    3.8330   11.0988    9.9583 C   0  0  0  0  0  0  0  0  0  0  0  0
    5.0721   11.9146    9.9591 C   0  0  0  0  0  0  0  0  0  0  0  0
    5.7171   12.1382    8.8325 C   0  0  0  0  0  0  0  0  0  0  0  0
    6.9565   12.9013    8.5363 C   0  0  0  0  0  0  0  0  0  0  0  0
    7.0631   14.1566    9.3182 C   0  0  0  0  0  0  0  0  0  0  0  0
    6.7715   14.4699   10.5640 C   0  0  0  0  0  0  0  0  0  0  0  0
    6.2132   13.5124   11.5422 C   0  0  0  0  0  0  0  0  0  0  0  0
    5.4831   12.4168   11.2621 C   0  0  0  0  0  0  0  0  0  0  0  0
    7.0247   15.8549   10.9732 C   0  0  0  0  0  0  0  0  0  0  0  0
    7.3697   16.0417   12.3673 C   0  0  0  0  0  0  0  0  0  0  0  0
    7.6345   14.9982   13.2122 C   0  0  0  0  0  0  0  0  0  0  0  0
    8.4059   14.4995   14.0616 C   0  0  0  0  0  0  0  0  0  0  0  0
    8.0297   13.1582   14.6546 C   0  0  0  0  0  0  0  0  0  0  0  0
    9.6539   15.0495   14.5540 C   0  0  0  0  0  0  0  0  0  0  0  0
   10.8394   14.7964   14.0488 C   0  0  0  0  0  0  0  0  0  0  0  0
   10.9976   13.7288   12.6838 Cl  0  0  0  0  0  0  0  0  0  0  0  0
   12.0353   15.4266   14.6502 C   0  0  0  0  0  0  0  0  0  0  0  0
   13.2395   14.9460   13.8406 C   0  0  0  0  0  0  0  0  0  0  0  0
   13.9066   16.0743   13.1748 C   0  0  0  0  0  0  0  0  0  0  0  0
   14.9431   15.9247   12.4545 N   0  0  0  0  0  0  0  0  0  0  0  0
   15.5893   14.7643   12.1815 O   0  0  0  0  0  0  0  0  0  0  0  0
   14.9125   13.6211   11.6384 C   0  0  0  0  0  0  0  0  0  0  0  0
   14.4945   12.7091   12.7390 C   0  0  0  0  0  0  0  0  0  0  0  0
   15.4311   11.9003   13.2482 C   0  0  0  0  0  0  0  0  0  0  0  0
   15.2596   10.9306   14.3206 C   0  0  0  0  0  0  0  0  0  0  0  0
   14.1202   10.3619   14.6831 C   0  0  0  0  0  0  0  0  0  0  0  0
   12.7561   10.5034   14.1695 C   0  0  0  0  0  0  0  0  0  0  0  0
   12.4033   11.8625   13.7251 C   0  0  0  0  0  0  0  0  0  0  0  0
   13.0909   12.8190   13.1250 C   0  0  0  0  0  0  0  0  0  0  0  0
   12.4744   14.0244   12.8238 O   0  0  0  0  0  0  0  0  0  0  0  0
   13.0966   14.9023   11.4619 Cl  0  0  0  0  0  0  0  0  0  0  0  0
   14.2358    9.3970   15.8250 C   0  0  0  0  0  0  0  0  0  0  0  0
   15.3865    8.6553   15.7472 F   0  0  0  0  0  0  0  0  0  0  0  0
  1  2  1  0
  2  3  2  3
  3  4  1  0
  4  5  1  0
  5  6  1  0
  6  7  2  0
  7  8  1  0
  8  9  2  0
  9 10  1  0
  9 11  1  0
 11 12  2  0
 12 13  1  0
  3 14  1  0
 14 15  2  3
 15 16  1  0
 16 17  2  3
 17 18  1  0
 18 19  1  6
 18 20  1  0
 20 21  2  3
 21 22  1  0
 21 23  1  0
 23 24  1  0
 24 25  1  0
 25 26  2  0
 26 27  1  0
 27 28  1  0
 28 29  2  0
 29 30  1  0
 30 31  2  0
 29 32  1  0
 32 33  1  0
 33 34  1  0
 34 35  2  3
 35 36  1  0
 35 37  1  0
 37 38  2  3
 38 39  1  0
 38 40  1  0
 40 41  1  0
 41 42  1  0
 42 43  2  3
 43 44  1  0
 44 45  1  0
 45 46  1  0
 46 47  2  0
 47 48  1  0
 48 49  2  0
 49 50  1  0
 50 51  1  0
 51 52  2  0
 52 53  1  0
 53 54  1  0
 49 55  1  0
 55 56  1  0
 12  6  1  0
 31 25  1  0
 52 46  1  0
M  END
>  <docking_score>  (2) 
51.433999999999997

$$$$

     RDKit          3D

 56 58  0  0  0  0  0  0  0  0999 V2000
    4.4026   13.6725   12.5684 C   0  0  0  0  0  0  0  0  0  0  0  0
    3.6600   13.3026   11.3625 C   0  0  0  0  0  0  0  0  0  0  0  0
    4.1880   13.3407   10.1441 C   0  0  0  0  0  0  0  0  0  0  0  0
    3.4935   12.9943    9.0132 O   0  0  0  0  0  0  0  0  0  0  0  0
    4.0064   12.3828    7.8650 C   0  0  0  0  0  0  0  0  0  0  0  0
    3.6724   10.9436    7.7998 C   0  0  0  0  0  0  0  0  0  0  0  0
    4.0860   10.0095    8.7226 C   0  0  0  0  0  0  0  0  0  0  0  0
    3.7513    8.6703    8.6240 C   0  0  0  0  0  0  0  0  0  0  0  0
    2.9770    8.2177    7.5774 C   0  0  0  0  0  0  0  0  0  0  0  0
    2.5409    6.5171    7.4382 Cl  0  0  0  0  0  0  0  0  0  0  0  0
    2.5599    9.1495    6.6498 C   0  0  0  0  0  0  0  0  0  0  0  0
    2.8916   10.4976    6.7410 C   0  0  0  0  0  0  0  0  0  0  0  0
    2.4763   11.3952    5.8261 F   0  0  0  0  0  0  0  0  0  0  0  0
    5.5684   13.7739   10.0390 C   0  0  0  0  0  0  0  0  0  0  0  0
    6.3921   13.5644   11.0306 C   0  0  0  0  0  0  0  0  0  0  0  0
    7.7686   14.0026   10.9110 C   0  0  0  0  0  0  0  0  0  0  0  0
    8.2425   14.5279    9.8044 C   0  0  0  0  0  0  0  0  0  0  0  0
    7.4574   14.7332    8.5768 C   0  0  2  0  0  0  0  0  0  0  0  0
    8.1990   15.7860    7.7484 C   0  0  0  0  0  0  0  0  0  0  0  0
    6.0843   15.2233    8.8382 C   0  0  0  0  0  0  0  0  0  0  0  0
    5.2065   15.4346    7.8831 C   0  0  0  0  0  0  0  0  0  0  0  0
    3.9228   15.9061    8.2726 N   0  0  0  0  0  0  0  0  0  0  0  0
    5.4876   15.2101    6.4449 C   0  0  0  0  0  0  0  0  0  0  0  0
    6.0261   13.8334    6.2618 C   0  0  0  0  0  0  0  0  0  0  0  0
    5.1395   12.9545    5.4603 C   0  0  0  0  0  0  0  0  0  0  0  0
    4.4899   13.4403    4.4223 C   0  0  0  0  0  0  0  0  0  0  0  0
    3.5535   12.8097    3.4571 C   0  0  0  0  0  0  0  0  0  0  0  0
    3.9578   11.4358    3.0731 C   0  0  0  0  0  0  0  0  0  0  0  0
    4.4690   10.4255    3.7462 C   0  0  0  0  0  0  0  0  0  0  0  0
    4.7757   10.4732    5.1915 C   0  0  0  0  0  0  0  0  0  0  0  0
    5.0623   11.5730    5.9127 C   0  0  0  0  0  0  0  0  0  0  0  0
    4.7397    9.1983    2.9909 C   0  0  0  0  0  0  0  0  0  0  0  0
    5.8403    8.3936    3.4793 C   0  0  0  0  0  0  0  0  0  0  0  0
    6.9395    8.9330    4.0906 C   0  0  0  0  0  0  0  0  0  0  0  0
    7.7137    9.9101    4.1959 C   0  0  0  0  0  0  0  0  0  0  0  0
    8.8501    9.8057    5.1908 C   0  0  0  0  0  0  0  0  0  0  0  0
    7.6690   11.1576    3.4580 C   0  0  0  0  0  0  0  0  0  0  0  0
    6.9956   12.2244    3.8230 C   0  0  0  0  0  0  0  0  0  0  0  0
    6.0648   12.2093    5.2932 Cl  0  0  0  0  0  0  0  0  0  0  0  0
    7.0368   13.4354    2.9742 C   0  0  0  0  0  0  0  0  0  0  0  0
    7.9127   13.0971    1.7679 C   0  0  0  0  0  0  0  0  0  0  0  0
    7.0904   12.8775    0.5691 C   0  0  0  0  0  0  0  0  0  0  0  0
    6.2203   13.7167    0.1762 N   0  0  0  0  0  0  0  0  0  0  0  0
    5.9065   14.9019    0.7553 O   0  0  0  0  0  0  0  0  0  0  0  0
    6.7021   15.4760    1.8029 C   0  0  0  0  0  0  0  0  0  0  0  0
    8.0612   14.8670    1.7992 C   0  0  0  0  0  0  0  0  0  0  0  0
    8.3595   14.0380    2.8064 C   0  0  0  0  0  0  0  0  0  0  0  0
    9.6150   13.3305    3.0134 C   0  0  0  0  0  0  0  0  0  0  0  0
   10.7976   13.6837    2.5343 C   0  0  0  0  0  0  0  0  0  0  0  0
   11.2109   14.8150    1.7011 C   0  0  0  0  0  0  0  0  0  0  0  0
   10.2271   15.2221    0.6835 C   0  0  0  0  0  0  0  0  0  0  0  0
    8.9057   15.2622    0.6759 C   0  0  0  0  0  0  0  0  0  0  0  0
    8.2371   15.7035   -0.4563 O   0  0  0  0  0  0  0  0  0  0  0  0
    8.1556   14.6023   -1.7955 Cl  0  0  0  0  0  0  0  0  0  0  0  0
   11.9245   12.7668    2.9054 C   0  0  0  0  0  0  0  0  0  0  0  0
   11.4659   11.5940    3.4481 F   0  0  0  0  0  0  0  0  0  0  0  0
  1  2  1  0
  2  3  2  3
  3  4  1  0
  4  5  1  0
  5  6  1  0
  6  7  2  0
  7  8  1  0
  8  9  2  0
  9 10  1  0
  9 11  1  0
 11 12  2  0
 12 13  1  0
  3 14  1  0
 14 15  2  3
 15 16  1  0
 16 17  2  3
 17 18  1  0
 18 19  1  6
 18 20  1  0
 20 21  2  3
 21 22  1  0
 21 23  1  0
 23 24  1  0
 24 25  1  0
 25 26  2  0
 26 27  1  0
 27 28  1  0
 28 29  2  0
 29 30  1  0
 30 31  2  0
 29 32  1  0
 32 33  1  0
 33 34  1  0
 34 35  2  3
 35 36  1  0
 35 37  1  0
 37 38  2  3
 38 39  1  0
 38 40  1  0
 40 41  1  0
 41 42  1  0
 42 43  2  3
 43 44  1  0
 44 45  1  0
 45 46  1  0
 46 47  2  0
 47 48  1  0
 48 49  2  0
 49 50  1  0
 50 51  1  0
 51 52  2  0
 52 53  1  0
 53 54  1  0
 49 55  1  0
 55 56  1  0
 12  6  1  0
 31 25  1  0
 52 46  1  0
M  END
>  <docking_score>  (3) 
51.459000000000003

$$$$
