
     RDKit          3D

 23 25  0  0  0  0  0  0  0  0999 V2000
   18.4414   -1.5180   -4.2694 C   0  0  0  0  0  0  0  0  0  0  0  0
   16.9447   -1.5934   -4.4511 C   0  0  1  0  0  0  0  0  0  0  0  0
   16.5743   -0.9228   -5.7611 C   0  0  0  0  0  0  0  0  0  0  0  0
   15.0710   -0.9018   -5.8945 C   0  0  2  0  0  0  0  0  0  0  0  0
   14.6670    0.4245   -5.7171 O   0  0  0  0  0  0  0  0  0  0  0  0
   14.4262   -1.7539   -4.8083 C   0  0  2  0  0  0  0  0  0  0  0  0
   14.5955   -1.1267   -3.5741 O   0  0  0  0  0  0  0  0  0  0  0  0
   15.0761   -3.1260   -4.7729 C   0  0  1  0  0  0  0  0  0  0  0  0
   14.7914   -3.8042   -5.9489 O   0  0  0  0  0  0  0  0  0  0  0  0
   16.5535   -3.0485   -4.5097 C   0  0  1  0  0  0  0  0  0  0  0  0
   17.3551   -3.8003   -5.4224 N   0  0  0  0  0  0  0  0  0  0  0  0
   17.5177   -5.1822   -5.1250 C   0  0  1  0  0  0  0  0  0  0  0  0
   17.6647   -5.9937   -6.3819 C   0  0  0  0  0  0  0  0  0  0  0  0
   16.9975   -7.3304   -6.3257 C   0  0  2  0  0  0  0  0  0  0  0  0
   16.7344   -7.9568   -5.1233 O   0  0  0  0  0  0  0  0  0  0  0  0
   17.6540   -8.5009   -6.1745 C   0  0  2  0  0  0  0  0  0  0  0  0
   18.9575   -8.5925   -5.6840 O   0  0  0  0  0  0  0  0  0  0  0  0
   19.1064   -7.9520   -4.4559 C   0  0  1  0  0  0  0  0  0  0  0  0
   20.0747   -8.5625   -3.6552 O   0  0  0  0  0  0  0  0  0  0  0  0
   19.5173   -6.5313   -4.7585 C   0  0  2  0  0  0  0  0  0  0  0  0
   20.8444   -6.2790   -4.4657 O   0  0  0  0  0  0  0  0  0  0  0  0
   18.5670   -5.5383   -4.1430 C   0  0  1  0  0  0  0  0  0  0  0  0
   19.3125   -4.4952   -3.6477 O   0  0  0  0  0  0  0  0  0  0  0  0
  2  1  1  6
  2  3  1  0
  3  4  1  0
  4  5  1  1
  4  6  1  0
  6  7  1  1
  6  8  1  0
  8  9  1  6
  8 10  1  0
 10 11  1  6
 12 11  1  6
 12 13  1  0
 14 13  1  1
 14 15  1  0
 14 16  1  0
 16 17  1  1
 17 18  1  0
 18 19  1  1
 18 20  1  0
 20 21  1  1
 20 22  1  0
 22 23  1  6
 10  2  1  0
 22 12  1  0
 16 15  1  0
M  END
>  <docking_score>  (1) 
-4.9660000000000002

$$$$

     RDKit          3D

 23 25  0  0  0  0  0  0  0  0999 V2000
    4.5596   10.4391    6.9883 C   0  0  0  0  0  0  0  0  0  0  0  0
    4.5620    9.3455    5.9478 C   0  0  1  0  0  0  0  0  0  0  0  0
    3.1372    8.8697    5.7315 C   0  0  0  0  0  0  0  0  0  0  0  0
    3.1485    7.7048    4.7719 C   0  0  2  0  0  0  0  0  0  0  0  0
    2.8506    6.5616    5.5190 O   0  0  0  0  0  0  0  0  0  0  0  0
    4.5313    7.5337    4.1554 C   0  0  2  0  0  0  0  0  0  0  0  0
    5.4164    7.0839    5.1348 O   0  0  0  0  0  0  0  0  0  0  0  0
    5.0192    8.8614    3.6025 C   0  0  1  0  0  0  0  0  0  0  0  0
    4.2179    9.2422    2.5363 O   0  0  0  0  0  0  0  0  0  0  0  0
    5.0931    9.9252    4.6611 C   0  0  1  0  0  0  0  0  0  0  0  0
    4.4593   11.1553    4.3058 N   0  0  0  0  0  0  0  0  0  0  0  0
    5.3246   12.2453    4.0095 C   0  0  1  0  0  0  0  0  0  0  0  0
    6.7208   11.9777    4.4985 C   0  0  0  0  0  0  0  0  0  0  0  0
    7.4171   13.1834    5.0431 C   0  0  2  0  0  0  0  0  0  0  0  0
    7.0453   14.4611    4.6738 O   0  0  0  0  0  0  0  0  0  0  0  0
    8.3882   13.8585    4.3910 C   0  0  2  0  0  0  0  0  0  0  0  0
    8.6003   13.7606    3.0150 O   0  0  0  0  0  0  0  0  0  0  0  0
    7.4451   14.0236    2.2820 C   0  0  1  0  0  0  0  0  0  0  0  0
    7.7262   14.6001    1.0410 O   0  0  0  0  0  0  0  0  0  0  0  0
    6.7508   12.6980    2.0825 C   0  0  2  0  0  0  0  0  0  0  0  0
    6.8447   12.2291    0.7857 O   0  0  0  0  0  0  0  0  0  0  0  0
    5.3406   12.7281    2.6099 C   0  0  1  0  0  0  0  0  0  0  0  0
    4.5460   12.0417    1.7231 O   0  0  0  0  0  0  0  0  0  0  0  0
  2  1  1  1
  2  3  1  0
  3  4  1  0
  4  5  1  1
  4  6  1  0
  6  7  1  1
  6  8  1  0
  8  9  1  6
  8 10  1  0
 10 11  1  6
 12 11  1  6
 12 13  1  0
 14 13  1  6
 14 15  1  0
 14 16  1  0
 16 17  1  6
 17 18  1  0
 18 19  1  6
 18 20  1  0
 20 21  1  6
 20 22  1  0
 22 23  1  6
 10  2  1  0
 22 12  1  0
 16 15  1  0
M  END
>  <docking_score>  (2) 
-4.8129999999999997

$$$$

     RDKit          3D

 23 25  0  0  0  0  0  0  0  0999 V2000
   16.6085   -7.8948   -5.3882 C   0  0  0  0  0  0  0  0  0  0  0  0
   17.9010   -7.6322   -6.1223 C   0  0  1  0  0  0  0  0  0  0  0  0
   17.6820   -7.8732   -7.6046 C   0  0  0  0  0  0  0  0  0  0  0  0
   18.9975   -7.7156   -8.3277 C   0  0  2  0  0  0  0  0  0  0  0  0
   19.3982   -8.9950   -8.7231 O   0  0  0  0  0  0  0  0  0  0  0  0
   20.0561   -7.1439   -7.3927 C   0  0  2  0  0  0  0  0  0  0  0  0
   20.3880   -8.1033   -6.4364 O   0  0  0  0  0  0  0  0  0  0  0  0
   19.5196   -5.9030   -6.7007 C   0  0  1  0  0  0  0  0  0  0  0  0
   19.3182   -4.9003   -7.6377 O   0  0  0  0  0  0  0  0  0  0  0  0
   18.2780   -6.1886   -5.9040 C   0  0  1  0  0  0  0  0  0  0  0  0
   17.1961   -5.2904   -6.1564 N   0  0  0  0  0  0  0  0  0  0  0  0
   16.6933   -4.5800   -5.0307 C   0  0  1  0  0  0  0  0  0  0  0  0
   17.8116   -3.9819   -4.2234 C   0  0  0  0  0  0  0  0  0  0  0  0
   17.5815   -4.0140   -2.7465 C   0  0  2  0  0  0  0  0  0  0  0  0
   16.3095   -4.0952   -2.2148 O   0  0  0  0  0  0  0  0  0  0  0  0
   17.2380   -2.9367   -2.0080 C   0  0  2  0  0  0  0  0  0  0  0  0
   16.6962   -1.7722   -2.5544 O   0  0  0  0  0  0  0  0  0  0  0  0
   15.5714   -2.0284   -3.3355 C   0  0  1  0  0  0  0  0  0  0  0  0
   14.6578   -0.9720   -3.3092 O   0  0  0  0  0  0  0  0  0  0  0  0
   16.0659   -2.2395   -4.7460 C   0  0  2  0  0  0  0  0  0  0  0  0
   15.7695   -1.1825   -5.5860 O   0  0  0  0  0  0  0  0  0  0  0  0
   15.6352   -3.5768   -5.2881 C   0  0  1  0  0  0  0  0  0  0  0  0
   15.2743   -3.4005   -6.6025 O   0  0  0  0  0  0  0  0  0  0  0  0
  2  1  1  1
  2  3  1  0
  3  4  1  0
  4  5  1  1
  4  6  1  0
  6  7  1  1
  6  8  1  0
  8  9  1  6
  8 10  1  0
 10 11  1  6
 12 11  1  6
 12 13  1  0
 14 13  1  6
 14 15  1  0
 14 16  1  0
 16 17  1  6
 17 18  1  0
 18 19  1  6
 18 20  1  0
 20 21  1  6
 20 22  1  0
 22 23  1  6
 10  2  1  0
 22 12  1  0
 16 15  1  0
M  END
>  <docking_score>  (3) 
-4.6639999999999997

$$$$
