
     RDKit          3D

 73 75  0  0  0  0  0  0  0  0999 V2000
   15.8651   -7.2265   -4.6274 C   0  0  0  0  0  0  0  0  0  0  0  0
   14.3674   -7.2882   -4.6815 O   0  0  0  0  0  0  0  0  0  0  0  0
   13.6890   -8.3963   -5.4309 C   0  0  0  0  0  3  0  0  0  0  0  0
   13.1790   -8.1589   -6.8216 O   0  0  0  0  0  0  0  0  0  0  0  0
   13.1724   -6.7713   -7.3913 C   0  0  0  0  0  0  0  0  0  0  0  0
   13.8132   -6.5033   -8.7208 C   0  0  0  0  0  0  0  0  0  0  0  0
   12.5249   -5.6517   -6.6315 O   0  0  0  0  0  0  0  0  0  0  0  0
   11.3131   -4.9677   -7.1915 C   0  0  0  0  0  0  0  0  0  0  0  0
   11.4705   -3.7525   -8.0567 N   0  0  0  0  0  0  0  0  0  0  0  0
   12.8007   -3.4394   -8.6752 C   0  0  0  0  0  3  0  0  0  0  0  0
   14.0290   -3.3694   -7.8170 C   0  0  0  0  0  0  0  0  0  0  0  0
   13.9216   -3.5771   -6.3353 C   0  0  0  0  0  3  0  0  0  0  0  0
   14.1357   -4.9423   -5.7519 O   0  0  0  0  0  0  0  0  0  0  0  0
   13.5999   -2.4197   -5.4371 C   0  0  0  0  0  0  0  0  0  0  0  0
   14.7062   -1.6621   -4.7648 C   0  0  0  0  0  3  0  0  0  0  0  0
   15.6123   -2.3609   -3.7950 O   0  0  0  0  0  0  0  0  0  0  0  0
   16.3953   -3.5632   -4.2328 C   0  0  0  0  0  0  0  0  0  0  0  0
   16.3729   -4.5632   -3.1149 O   0  0  0  0  0  0  0  0  0  0  0  0
   16.8430   -5.9242   -2.6947 C   0  0  0  0  0  0  0  0  0  0  0  0
   16.3366   -6.1812   -1.3062 O   0  0  0  0  0  0  0  0  0  0  0  0
   17.6259   -7.1265   -3.1325 O   0  0  0  0  0  0  0  0  0  0  0  0
   18.4227   -7.7106   -4.2611 C   0  0  0  0  0  3  0  0  0  0  0  0
   18.9290   -7.4536   -5.6495 C   0  0  0  0  0  3  0  0  0  0  0  0
   18.9514   -6.4537   -6.7674 C   0  0  0  0  0  3  0  0  0  0  0  0
   18.4813   -5.0926   -7.1876 O   0  0  0  0  0  0  0  0  0  0  0  0
   17.6984   -3.8904   -6.7498 C   0  0  0  0  0  0  0  0  0  0  0  0
   17.7208   -2.8904   -7.8676 O   0  0  0  0  0  0  0  0  0  0  0  0
   16.9016   -3.3062   -5.6212 C   0  0  0  0  0  0  0  0  0  0  0  0
   16.4316   -1.9452   -6.0415 C   0  0  0  0  0  0  0  0  0  0  0  0
   16.4808   -1.3860   -7.4325 O   0  0  0  0  0  0  0  0  0  0  0  0
   15.9094    0.0004   -7.3952 N   0  0  0  0  0  0  0  0  0  0  0  0
   15.5070    0.2981   -5.9812 C   0  0  0  0  0  3  0  0  0  0  0  0
   15.8296   -0.9044   -5.1445 C   0  0  0  0  0  0  0  0  0  0  0  0
   15.5921   -1.0419   -3.6698 C   0  0  0  0  0  0  0  0  0  0  0  0
   14.2823   -0.6132   -3.0779 O   0  0  0  0  0  0  0  0  0  0  0  0
   13.6268    0.6528   -3.5446 O   0  0  0  0  0  0  0  0  0  0  0  0
   12.1361    0.7124   -3.6998 C   0  0  0  0  0  3  0  0  0  0  0  0
   11.4180   -0.3602   -4.4639 C   0  0  0  0  0  0  0  0  0  0  0  0
   12.1872   -1.5080   -5.0477 O   0  0  0  0  0  0  0  0  0  0  0  0
    9.9307   -0.2850   -4.6440 C   0  0  0  0  0  3  0  0  0  0  0  0
    9.3562    0.2469   -5.9235 O   0  0  0  0  0  0  0  0  0  0  0  0
    7.9057    0.0336   -6.2401 C   0  0  0  0  0  3  0  0  0  0  0  0
    6.9855   -0.5298   -5.1981 O   0  0  0  0  0  0  0  0  0  0  0  0
    5.6529   -1.0903   -5.5983 C   0  0  0  0  0  2  0  0  0  0  0  0
    9.9439   -5.4988   -6.8863 C   0  0  0  0  0  0  0  0  0  0  0  0
    9.0259   -5.8930   -8.0052 O   0  0  0  0  0  0  0  0  0  0  0  0
    9.0865   -7.2808   -8.5715 C   0  0  0  0  0  3  0  0  0  0  0  0
    9.4704   -8.4336   -7.6920 O   0  0  0  0  0  0  0  0  0  0  0  0
    8.9597   -8.5048   -6.2834 O   0  0  0  0  0  0  0  0  0  0  0  0
    7.6149   -7.9340   -5.9435 C   0  0  0  0  0  3  0  0  0  0  0  0
    6.3827   -8.4680   -6.6119 C   0  0  0  0  0  0  0  0  0  0  0  0
    5.5815   -7.5859   -7.5230 O   0  0  0  0  0  0  0  0  0  0  0  0
    5.9517   -9.8842   -6.3693 C   0  0  0  0  0  3  0  0  0  0  0  0
    5.4082  -10.2836   -5.0296 O   0  0  0  0  0  0  0  0  0  0  0  0
    6.3363  -10.4505   -3.8631 C   0  0  0  0  0  0  0  0  0  0  0  0
    5.9744  -11.3814   -2.7440 N   0  0  0  0  0  0  0  0  0  0  0  0
    5.9760  -10.8877   -1.3275 C   0  0  0  0  0  0  0  0  0  0  0  0
    4.6778  -10.6284   -0.6222 O   0  0  0  0  0  0  0  0  0  0  0  0
    7.2758  -10.6534   -0.6164 O   0  0  0  0  0  0  0  0  0  0  0  0
    8.5571  -11.1601   -1.2093 N   0  0  0  0  0  0  0  0  0  0  0  0
    8.9181  -10.8131   -2.6232 N   0  0  0  0  0  0  0  0  0  0  0  0
    8.9343  -11.8806   -3.6768 C   0  0  0  0  0  3  0  0  0  0  0  0
    8.1284  -11.7097   -4.9302 C   0  0  0  0  0  0  0  0  0  0  0  0
    6.7441  -12.2808   -5.0156 C   0  0  0  0  0  0  0  0  0  0  0  0
    6.4586  -13.4348   -4.1006 N   0  0  0  0  0  0  0  0  0  0  0  0
    5.1867  -14.2154   -3.9488 N   0  0  0  0  0  0  0  0  0  0  0  0
    3.8864  -14.0349   -4.6742 O   0  0  0  0  0  0  0  0  0  0  0  0
    3.5366  -13.0293   -5.7308 C   0  0  0  0  0  3  0  0  0  0  0  0
    4.4008  -11.9557   -6.3229 C   0  0  0  0  0  0  0  0  0  0  0  0
    3.7518  -11.1024   -7.3719 C   0  0  0  0  0  0  0  0  0  0  0  0
    3.2942  -11.7172   -8.6613 O   0  0  0  0  0  0  0  0  0  0  0  0
    2.2601  -12.8037   -8.6489 C   0  0  0  0  0  2  0  0  0  0  0  0
    5.8283  -11.6227   -6.0045 O   0  0  0  0  0  0  0  0  0  0  0  0
  1  2  1  0
  2  3  1  0
  3  4  1  0
  4  5  1  0
  5  6  1  0
  5  7  1  0
  7  8  1  0
  8  9  1  0
  9 10  1  0
 10 11  1  0
 11 12  1  0
 12 13  1  0
 12 14  1  0
 14 15  1  0
 15 16  1  0
 17 16  1  0
 17 18  1  0
 18 19  1  0
 19 20  1  0
 19 21  1  0
 21 22  1  0
 22 23  1  0
 23 24  1  0
 24 25  1  0
 25 26  1  0
 26 27  1  0
 28 26  1  0
 28 29  1  0
 29 30  1  0
 30 31  1  0
 31 32  1  0
 32 33  1  0
 33 34  1  0
 34 35  1  0
 35 36  1  0
 36 37  1  0
 37 38  1  0
 38 39  1  0
 38 40  1  0
 40 41  1  0
 41 42  1  0
 42 43  1  0
 43 44  1  0
  8 45  1  0
 45 46  1  0
 46 47  1  0
 47 48  1  0
 48 49  1  0
 49 50  1  0
 50 51  1  0
 51 52  1  0
 51 53  1  0
 53 54  1  0
 54 55  1  0
 55 56  1  0
 56 57  1  0
 57 58  1  0
 57 59  1  0
 59 60  1  0
 60 61  1  0
 61 62  1  0
 62 63  1  0
 64 63  1  0
 64 65  1  0
 65 66  1  0
 66 67  1  0
 67 68  1  0
 68 69  1  0
 69 70  1  0
 70 71  1  0
 71 72  1  0
 64 73  1  0
 28 17  1  0
 33 29  1  0
 73 69  1  0
M  RAD  8   3   2  10   2  12   2  15   2  22   2  23   2  24   2  32   2
M  RAD  8  37   2  40   2  42   2  44   3  47   2  50   2  53   2  62   2
M  RAD  2  68   2  72   3
M  END
>  <docking_score>  (1) 
41.143000000000001

$$$$
