
     RDKit          3D

 12 12  0  0  0  0  0  0  0  0999 V2000
    4.1740   -3.9997   -6.7582 O   0  0  0  0  0  0  0  0  0  0  0  0
    4.9532   -3.9024   -7.7469 C   0  0  0  0  0  0  0  0  0  0  0  0
    5.9063   -4.9011   -7.8825 O   0  0  0  0  0  0  0  0  0  0  0  0
    4.8784   -2.8108   -8.7097 C   0  0  0  0  0  0  0  0  0  0  0  0
    5.4319   -1.6439   -8.5216 C   0  0  0  0  0  0  0  0  0  0  0  0
    6.1736   -1.3934   -7.2840 C   0  0  0  0  0  0  0  0  0  0  0  0
    6.2405   -0.1478   -6.8504 C   0  0  0  0  0  0  0  0  0  0  0  0
    5.6897    1.0222   -7.4124 O   0  0  0  0  0  0  0  0  0  0  0  0
    6.0738    2.0287   -6.5407 N   0  0  0  0  0  0  0  0  0  0  0  0
    6.7700    1.5354   -5.5710 C   0  0  0  0  0  0  0  0  0  0  0  0
    6.9387    0.2521   -5.6423 C   0  0  0  0  0  0  0  0  0  0  0  0
    7.6653   -0.6438   -4.7306 C   0  0  0  0  0  0  0  0  0  0  0  0
  1  2  2  0
  2  3  1  0
  2  4  1  0
  4  5  2  3
  5  6  1  0
  6  7  2  3
  7  8  1  0
  8  9  1  0
  9 10  2  0
 10 11  2  0
 11 12  1  0
 11  7  1  0
M  END
>  <docking_score>  (1) 
-4.6299999999999999

$$$$

     RDKit          3D

 12 12  0  0  0  0  0  0  0  0999 V2000
    7.0126    0.1321   -7.9804 O   0  0  0  0  0  0  0  0  0  0  0  0
    6.0932   -0.6792   -7.6796 C   0  0  0  0  0  0  0  0  0  0  0  0
    5.4389   -1.2912   -8.7386 O   0  0  0  0  0  0  0  0  0  0  0  0
    5.7182   -0.9761   -6.3029 C   0  0  0  0  0  0  0  0  0  0  0  0
    5.6143   -2.1878   -5.8289 C   0  0  0  0  0  0  0  0  0  0  0  0
    5.8839   -3.3272   -6.7084 C   0  0  0  0  0  0  0  0  0  0  0  0
    4.8565   -4.0639   -7.0902 C   0  0  0  0  0  0  0  0  0  0  0  0
    3.4903   -3.9207   -6.7725 O   0  0  0  0  0  0  0  0  0  0  0  0
    2.8759   -4.9652   -7.4449 N   0  0  0  0  0  0  0  0  0  0  0  0
    3.7553   -5.6570   -8.0901 C   0  0  0  0  0  0  0  0  0  0  0  0
    4.9691   -5.2214   -7.9587 C   0  0  0  0  0  0  0  0  0  0  0  0
    6.2147   -5.7460   -8.5379 C   0  0  0  0  0  0  0  0  0  0  0  0
  1  2  2  0
  2  3  1  0
  2  4  1  0
  4  5  2  3
  5  6  1  0
  6  7  2  3
  7  8  1  0
  8  9  1  0
  9 10  2  0
 10 11  2  0
 11 12  1  0
 11  7  1  0
M  END
>  <docking_score>  (2) 
-4.6289999999999996

$$$$
