
     RDKit          3D

 16 17  0  0  0  0  0  0  0  0999 V2000
   17.8680   -4.0912   -5.3572 O   0  0  0  0  0  0  0  0  0  0  0  0
   18.5908   -3.4919   -4.3331 C   0  0  0  0  0  0  0  0  0  0  0  0
   18.9066   -4.5576   -3.2984 C   0  0  0  0  0  3  0  0  0  0  0  0
   18.4735   -4.1175   -2.0030 N   0  0  0  0  0  0  0  0  0  0  0  0
   17.0894   -3.7768   -1.9321 C   0  0  2  0  0  0  0  0  0  0  0  0
   16.1936   -4.6341   -2.7563 C   0  0  0  0  0  0  0  0  0  0  0  0
   16.8131   -5.7174   -3.3353 O   0  0  0  0  0  0  0  0  0  0  0  0
   16.8002   -2.3315   -2.2520 C   0  0  1  0  0  0  0  0  0  0  0  0
   17.9476   -1.5713   -2.3946 O   0  0  0  0  0  0  0  0  0  0  0  0
   15.9270   -2.2211   -3.4692 C   0  0  1  0  0  0  0  0  0  0  0  0
   14.8977   -1.3191   -3.3407 O   0  0  0  0  0  0  0  0  0  0  0  0
   16.6962   -2.0995   -4.7495 C   0  0  0  0  0  3  0  0  0  0  0  0
   16.6746   -3.3878   -5.5658 C   0  0  2  0  0  0  0  0  0  0  0  0
   15.5347   -4.2637   -5.0713 C   0  0  0  0  0  0  0  0  0  0  0  0
   15.9324   -5.5933   -5.2746 O   0  0  0  0  0  0  0  0  0  0  0  0
   15.9226   -6.2828   -4.1477 O   0  0  0  0  0  0  0  0  0  0  0  0
  1  2  1  0
  2  3  1  0
  3  4  1  0
  4  5  1  0
  5  6  1  6
  6  7  1  0
  5  8  1  0
  8  9  1  6
  8 10  1  0
 10 11  1  1
 10 12  1  0
 12 13  1  0
 13 14  1  1
 14 15  1  0
 15 16  1  0
 13  1  1  0
 16  7  1  0
M  RAD  2   3   2  12   2
M  END
>  <docking_score>  (1) 
-4.7089999999999996

$$$$

     RDKit          3D

 16 17  0  0  0  0  0  0  0  0999 V2000
   18.0571   -4.3737   -4.4480 O   0  0  0  0  0  0  0  0  0  0  0  0
   17.7297   -4.5358   -5.7885 C   0  0  0  0  0  0  0  0  0  0  0  0
   17.2001   -3.2092   -6.3039 C   0  0  0  0  0  3  0  0  0  0  0  0
   15.9192   -3.4063   -6.9201 N   0  0  0  0  0  0  0  0  0  0  0  0
   14.9464   -4.0120   -6.0695 C   0  0  2  0  0  0  0  0  0  0  0  0
   15.0208   -3.5951   -4.6421 C   0  0  0  0  0  0  0  0  0  0  0  0
   15.9099   -2.5761   -4.3898 O   0  0  0  0  0  0  0  0  0  0  0  0
   14.9368   -5.5190   -6.1307 C   0  0  1  0  0  0  0  0  0  0  0  0
   15.7617   -6.0231   -7.1208 O   0  0  0  0  0  0  0  0  0  0  0  0
   15.2813   -6.1074   -4.7923 C   0  0  1  0  0  0  0  0  0  0  0  0
   14.4727   -7.1530   -4.4148 O   0  0  0  0  0  0  0  0  0  0  0  0
   16.7462   -6.3648   -4.6099 C   0  0  0  0  0  3  0  0  0  0  0  0
   17.4046   -5.3486   -3.6823 C   0  0  2  0  0  0  0  0  0  0  0  0
   16.3236   -4.6483   -2.8746 C   0  0  0  0  0  0  0  0  0  0  0  0
   16.7945   -3.3537   -2.6109 O   0  0  0  0  0  0  0  0  0  0  0  0
   15.9662   -2.4312   -3.0676 O   0  0  0  0  0  0  0  0  0  0  0  0
  1  2  1  0
  2  3  1  0
  3  4  1  0
  4  5  1  0
  5  6  1  1
  6  7  1  0
  5  8  1  0
  8  9  1  6
  8 10  1  0
 10 11  1  6
 10 12  1  0
 12 13  1  0
 13 14  1  6
 14 15  1  0
 15 16  1  0
 13  1  1  0
 16  7  1  0
M  RAD  2   3   2  12   2
M  END
>  <docking_score>  (2) 
-4.5659999999999998

$$$$

     RDKit          3D

 16 17  0  0  0  0  0  0  0  0999 V2000
   17.2756   -3.6559   -5.7672 O   0  0  0  0  0  0  0  0  0  0  0  0
   18.3850   -3.8246   -4.9478 C   0  0  0  0  0  0  0  0  0  0  0  0
   18.4811   -5.2970   -4.5889 C   0  0  0  0  0  3  0  0  0  0  0  0
   18.5573   -5.4434   -3.1634 N   0  0  0  0  0  0  0  0  0  0  0  0
   17.4717   -4.8477   -2.4540 C   0  0  2  0  0  0  0  0  0  0  0  0
   16.1517   -4.9491   -3.1352 C   0  0  0  0  0  0  0  0  0  0  0  0
   16.1503   -5.7346   -4.2647 O   0  0  0  0  0  0  0  0  0  0  0  0
   17.7082   -3.4070   -2.0753 C   0  0  1  0  0  0  0  0  0  0  0  0
   18.9980   -2.9841   -2.3444 O   0  0  0  0  0  0  0  0  0  0  0  0
   16.6995   -2.5114   -2.7361 C   0  0  1  0  0  0  0  0  0  0  0  0
   16.1633   -1.5596   -1.9018 O   0  0  0  0  0  0  0  0  0  0  0  0
   17.1466   -1.9836   -4.0654 C   0  0  0  0  0  3  0  0  0  0  0  0
   16.4396   -2.6680   -5.2309 C   0  0  2  0  0  0  0  0  0  0  0  0
   15.1900   -3.3595   -4.7098 C   0  0  0  0  0  0  0  0  0  0  0  0
   14.9785   -4.4779   -5.5293 O   0  0  0  0  0  0  0  0  0  0  0  0
   14.9521   -5.5977   -4.8288 O   0  0  0  0  0  0  0  0  0  0  0  0
  1  2  1  0
  2  3  1  0
  3  4  1  0
  4  5  1  0
  5  6  1  6
  6  7  1  0
  5  8  1  0
  8  9  1  6
  8 10  1  0
 10 11  1  1
 10 12  1  0
 12 13  1  0
 13 14  1  1
 14 15  1  0
 15 16  1  0
 13  1  1  0
 16  7  1  0
M  RAD  2   3   2  12   2
M  END
>  <docking_score>  (3) 
-4.3769999999999998

$$$$
