
     RDKit          3D

 12 12  0  0  0  0  0  0  0  0999 V2000
    6.5589    2.5105   -4.8723 C   0  0  0  0  0  0  0  0  0  0  0  0
    6.2833    2.0402   -6.1829 O   0  0  0  0  0  0  0  0  0  0  0  0
    5.9866    0.7080   -6.3326 C   0  0  0  0  0  0  0  0  0  0  0  0
    6.2970   -0.0163   -7.3763 C   0  0  0  0  0  0  0  0  0  0  0  0
    6.9676    0.4484   -8.4804 O   0  0  0  0  0  0  0  0  0  0  0  0
    5.8837   -1.4450   -7.3429 C   0  0  0  0  0  0  0  0  0  0  0  0
    5.8670   -2.3348   -6.4102 C   0  0  0  0  0  0  0  0  0  0  0  0
    6.2495   -2.2601   -5.0437 O   0  0  0  0  0  0  0  0  0  0  0  0
    5.3348   -3.3588   -7.2802 C   0  0  2  0  0  0  0  0  0  0  0  0
    5.3473   -2.3767   -8.3328 C   0  0  0  0  0  0  0  0  0  0  0  0
    3.9490   -3.7494   -6.8627 C   0  0  0  0  0  0  0  0  0  0  0  0
    3.5869   -4.8987   -6.7663 O   0  0  0  0  0  0  0  0  0  0  0  0
  1  2  1  0
  2  3  1  0
  3  4  2  3
  4  5  1  0
  4  6  1  0
  6  7  2  0
  7  8  1  0
  7  9  1  0
  9 10  1  0
  9 11  1  1
 11 12  2  0
 10  6  1  0
M  END
>  <docking_score>  (1) 
-4.6269999999999998

$$$$

     RDKit          3D

 12 12  0  0  0  0  0  0  0  0999 V2000
    2.9983   -4.3958   -6.9976 C   0  0  0  0  0  0  0  0  0  0  0  0
    4.3854   -4.5195   -6.7228 O   0  0  0  0  0  0  0  0  0  0  0  0
    5.0726   -3.3793   -6.3869 C   0  0  0  0  0  0  0  0  0  0  0  0
    5.4690   -2.4659   -7.2349 C   0  0  0  0  0  0  0  0  0  0  0  0
    5.2563   -2.5110   -8.5904 O   0  0  0  0  0  0  0  0  0  0  0  0
    6.2015   -1.3023   -6.6670 C   0  0  0  0  0  0  0  0  0  0  0  0
    6.5735   -0.1707   -7.1601 C   0  0  0  0  0  0  0  0  0  0  0  0
    6.4087    0.3791   -8.4599 O   0  0  0  0  0  0  0  0  0  0  0  0
    7.1811    0.2645   -5.9230 C   0  0  2  0  0  0  0  0  0  0  0  0
    6.7727   -0.9949   -5.3575 C   0  0  0  0  0  0  0  0  0  0  0  0
    6.4403    1.4320   -5.3439 C   0  0  0  0  0  0  0  0  0  0  0  0
    6.0370    2.3558   -6.0112 O   0  0  0  0  0  0  0  0  0  0  0  0
  1  2  1  0
  2  3  1  0
  3  4  2  3
  4  5  1  0
  4  6  1  0
  6  7  2  0
  7  8  1  0
  7  9  1  0
  9 10  1  0
  9 11  1  1
 11 12  2  0
 10  6  1  0
M  END
>  <docking_score>  (2) 
-4.2279999999999998

$$$$

     RDKit          3D

 12 12  0  0  0  0  0  0  0  0999 V2000
   13.7477    0.1229   -4.4046 C   0  0  0  0  0  0  0  0  0  0  0  0
   14.7703   -0.5962   -5.0770 O   0  0  0  0  0  0  0  0  0  0  0  0
   15.3978   -1.6050   -4.3888 C   0  0  0  0  0  0  0  0  0  0  0  0
   15.0756   -2.8708   -4.4554 C   0  0  0  0  0  0  0  0  0  0  0  0
   14.0597   -3.3807   -5.2251 O   0  0  0  0  0  0  0  0  0  0  0  0
   15.8823   -3.8083   -3.6285 C   0  0  0  0  0  0  0  0  0  0  0  0
   16.1730   -5.0587   -3.7463 C   0  0  0  0  0  0  0  0  0  0  0  0
   15.8135   -6.0098   -4.7389 O   0  0  0  0  0  0  0  0  0  0  0  0
   16.9587   -5.0771   -2.5334 C   0  0  2  0  0  0  0  0  0  0  0  0
   16.6430   -3.6801   -2.3874 C   0  0  0  0  0  0  0  0  0  0  0  0
   18.4066   -5.3198   -2.8366 C   0  0  0  0  0  0  0  0  0  0  0  0
   18.8505   -6.4098   -3.1127 O   0  0  0  0  0  0  0  0  0  0  0  0
  1  2  1  0
  2  3  1  0
  3  4  2  3
  4  5  1  0
  4  6  1  0
  6  7  2  0
  7  8  1  0
  7  9  1  0
  9 10  1  0
  9 11  1  6
 11 12  2  0
 10  6  1  0
M  END
>  <docking_score>  (3) 
-3.891

$$$$
