
     RDKit          3D

 78 81  0  0  0  0  0  0  0  0999 V2000
    9.6756   15.6678    4.3646 C   0  0  0  0  0  0  0  0  0  0  0  0
    8.1558   15.6576    4.3969 C   0  0  0  0  0  0  0  0  0  0  0  0
    7.6692   16.0393    3.0025 C   0  0  0  0  0  0  0  0  0  0  0  0
    7.6778   14.2380    4.7374 C   0  0  0  0  0  0  0  0  0  0  0  0
    7.0932   14.2536    6.1339 C   0  0  0  0  0  0  0  0  0  0  0  0
    7.0668   12.8391    6.7170 C   0  0  0  0  0  0  0  0  0  0  0  0
    6.9802   11.8413    5.5898 C   0  0  1  0  0  0  0  0  0  0  0  0
    8.3103   11.3787    5.0788 C   0  0  0  0  0  0  0  0  0  0  0  0
    5.9909   10.7378    5.8162 C   0  0  0  0  0  3  0  0  0  0  0  0
    4.6584   11.0418    5.2377 C   0  0  0  0  0  0  0  0  0  0  0  0
    4.7119   11.3435    3.7598 C   0  0  0  0  0  0  0  0  0  0  0  0
    3.3351   11.4862    3.1867 C   0  0  2  0  0  0  0  0  0  0  0  0
    2.3116   11.6662    4.3082 C   0  0  0  0  0  0  0  0  0  0  0  0
    2.9695   10.3423    2.3094 C   0  0  0  0  0  0  0  0  0  0  0  0
    3.6112    9.0637    2.6664 C   0  0  2  0  0  0  0  0  0  0  0  0
    2.8469    7.9037    2.7736 N   0  0  0  0  0  0  0  0  0  0  0  0
    3.4109    6.6508    2.9528 C   0  0  0  0  0  0  0  0  0  0  0  0
    3.2426    5.8450    4.1488 C   0  0  0  0  0  0  0  0  0  0  0  0
    3.6383    6.5334    5.3984 C   0  0  0  0  0  0  0  0  0  0  0  0
    2.4998    7.0471    6.0575 O   0  0  0  0  0  0  0  0  0  0  0  0
    4.8751    9.1525    3.4367 C   0  0  0  0  0  0  0  0  0  0  0  0
    5.9080   10.0858    2.9028 C   0  0  0  0  0  0  0  0  0  0  0  0
    6.5071    9.6103    1.6188 C   0  0  1  0  0  0  0  0  0  0  0  0
    5.9832    8.3012    1.1494 C   0  0  0  0  0  0  0  0  0  0  0  0
    6.6155   10.6729    0.5922 C   0  0  1  0  0  0  0  0  0  0  0  0
    5.4841   11.5576    0.2367 C   0  0  0  0  0  0  0  0  0  0  0  0
    6.8200   12.0897    0.8006 C   0  0  1  0  0  0  0  0  0  0  0  0
    6.6609   12.7883    2.1160 C   0  0  1  0  0  0  0  0  0  0  0  0
    5.2488   12.5934    2.6842 C   0  0  0  0  0  0  0  0  0  0  0  0
    5.3131   12.9993    4.1393 C   0  0  0  0  0  0  0  0  0  0  0  0
    4.5663   14.6447    4.2783 S   0  0  0  0  0  0  0  0  0  0  0  0
    2.9485   14.6148    5.0530 C   0  0  0  0  0  0  0  0  0  0  0  0
    2.7366   13.4104    5.9221 C   0  0  0  0  0  3  0  0  0  0  0  0
    3.8711   13.3612    6.9091 C   0  0  0  0  0  0  0  0  0  0  0  0
    3.5973   13.5880    8.1858 C   0  0  0  0  0  0  0  0  0  0  0  0
    4.6248   13.5678    9.2584 C   0  0  1  0  0  0  0  0  0  0  0  0
    6.0545   13.6840    8.7581 C   0  0  1  0  0  0  0  0  0  0  0  0
    6.3089   13.1721    7.3819 C   0  0  0  0  0  0  0  0  0  0  0  0
    5.9245   15.2106    8.8786 C   0  0  0  0  0  0  0  0  0  0  0  0
    4.7734   14.9589    9.7872 C   0  0  1  0  0  0  0  0  0  0  0  0
    3.6211   15.8747    9.7603 C   0  0  1  0  0  0  0  0  0  0  0  0
    2.2728   15.1819    9.5541 C   0  0  0  0  0  0  0  0  0  0  0  0
    3.8145   16.0746   11.2719 C   0  0  0  0  0  0  0  0  0  0  0  0
    4.9743   15.0678   11.2503 C   0  0  0  0  0  3  0  0  0  0  0  0
    6.3231   15.7136   11.4999 C   0  0  0  0  0  0  0  0  0  0  0  0
    7.0753   15.0205   12.6107 C   0  0  0  0  0  0  0  0  0  0  0  0
    8.5384   14.9056   12.2073 C   0  0  0  0  0  0  0  0  0  0  0  0
    9.2436   14.0592   13.2401 C   0  0  0  0  0  0  0  0  0  0  0  0
   10.6780   13.8753   12.7997 C   0  0  0  0  0  0  0  0  0  0  0  0
   11.5492   14.6179   13.7903 C   0  0  1  0  0  0  0  0  0  0  0  0
   11.1392   16.0680   13.8958 C   0  0  0  0  0  2  0  0  0  0  0  0
   11.4681   13.9594   15.1479 C   0  0  0  0  0  0  0  0  0  0  0  0
   12.8581   13.5448   15.6157 C   0  0  0  0  0  0  0  0  0  0  0  0
   13.7973   14.6120   15.1432 C   0  0  0  0  0  0  0  0  0  0  0  0
   14.3739   14.4527   13.9343 C   0  0  0  0  0  3  0  0  0  0  0  0
   14.0978   13.2715   13.0948 C   0  0  0  0  0  0  0  0  0  0  0  0
   14.3599   13.5954   11.6548 C   0  0  1  0  0  0  0  0  0  0  0  0
   15.8497   13.7966   11.4456 C   0  0  0  0  0  0  0  0  0  0  0  0
   13.8760   12.4394   10.8049 C   0  0  0  0  0  3  0  0  0  0  0  0
   14.8582   12.1894    9.6562 C   0  0  0  0  0  0  0  0  0  0  0  0
   14.3890   12.8326    8.3813 C   0  0  0  0  0  0  0  0  0  0  0  0
   14.2227   11.8548    7.2635 C   0  0  2  0  0  0  0  0  0  0  0  0
   14.4814   10.4425    7.7599 C   0  0  0  0  0  0  0  0  0  0  0  0
   15.1240   12.1044    6.0891 C   0  0  0  0  0  3  0  0  0  0  0  0
   15.7367   10.8143    5.5963 C   0  0  0  0  0  0  0  0  0  0  0  0
   15.1522   10.4652    4.2489 C   0  0  0  0  0  0  0  0  0  0  0  0
   16.2115   10.7439    3.1780 C   0  0  1  0  0  0  0  0  0  0  0  0
   17.1752    9.5832    3.1338 C   0  0  0  0  0  0  0  0  0  0  0  0
   15.5410   10.9560    1.8507 C   0  0  0  0  0  3  0  0  0  0  0  0
   14.2164   11.6676    2.0296 C   0  0  0  0  0  0  0  0  0  0  0  0
   13.2519   10.8308    2.8583 C   0  0  0  0  0  0  0  0  0  0  0  0
   11.8118   11.1433    2.5238 C   0  0  0  0  0  3  0  0  0  0  0  0
   11.0409    9.8361    2.5951 C   0  0  0  0  0  0  0  0  0  0  0  0
   11.1904   12.0735    3.5449 C   0  0  0  0  0  3  0  0  0  0  0  0
    9.9792   12.7879    2.9771 C   0  0  0  0  0  0  0  0  0  0  0  0
    8.9237   11.7967    2.5180 C   0  0  0  0  0  0  0  0  0  0  0  0
    7.6054   12.1987    3.1444 C   0  0  0  0  0  3  0  0  0  0  0  0
    7.8606   13.1713    4.2924 C   0  0  0  0  0  0  0  0  0  0  0  0
  1  2  1  0
  2  3  1  0
  2  4  1  0
  4  5  1  0
  5  6  1  0
  6  7  1  0
  7  8  1  1
  7  9  1  0
  9 10  1  0
 10 11  1  0
 11 12  1  0
 12 13  1  1
 12 14  1  0
 15 14  1  1
 15 16  1  0
 16 17  1  0
 17 18  1  0
 18 19  1  0
 19 20  1  0
 15 21  1  0
 21 22  1  0
 22 23  1  0
 23 24  1  6
 23 25  1  0
 25 26  1  1
 27 26  1  6
 27 28  1  0
 28 29  1  1
 29 30  1  0
 30 31  1  0
 31 32  1  0
 32 33  1  0
 33 34  1  0
 34 35  2  3
 36 35  1  6
 36 37  1  0
 37 38  1  6
 37 39  1  0
 40 39  1  6
 40 41  1  0
 41 42  1  1
 41 43  1  0
 43 44  1  0
 44 45  1  0
 45 46  1  0
 46 47  1  0
 47 48  1  0
 48 49  1  0
 49 50  1  0
 50 51  1  1
 50 52  1  0
 52 53  1  0
 53 54  1  0
 54 55  2  3
 55 56  1  0
 56 57  1  0
 57 58  1  1
 57 59  1  0
 59 60  1  0
 60 61  1  0
 61 62  1  0
 62 63  1  1
 62 64  1  0
 64 65  1  0
 65 66  1  0
 66 67  1  0
 67 68  1  6
 67 69  1  0
 69 70  1  0
 70 71  1  0
 71 72  1  0
 72 73  1  0
 72 74  1  0
 74 75  1  0
 75 76  1  0
 76 77  1  0
 77 78  1  0
 27 25  1  0
 77 28  1  0
 40 36  1  0
 44 40  1  0
M  RAD  8   9   2  33   2  44   2  51   3  55   2  59   2  64   2  69   2
M  RAD  3  72   2  74   2  77   2
M  END
>  <docking_score>  (1) 
103.51600000000001

$$$$
