
     RDKit          3D

 11 11  0  0  0  0  0  0  0  0999 V2000
   14.7519   -1.1724   -3.6030 O   0  0  0  0  0  0  0  0  0  0  0  0
   15.1772   -2.1576   -4.4772 C   0  0  0  0  0  0  0  0  0  0  0  0
   15.8089   -3.3293   -3.8387 C   0  0  2  0  0  0  0  0  0  0  0  0
   16.4193   -3.0740   -2.5592 N   0  0  0  0  0  0  0  0  0  0  0  0
   16.6110   -4.3550   -1.9072 C   0  0  0  0  0  3  0  0  0  0  0  0
   17.3889   -5.3323   -2.7125 C   0  0  2  0  0  0  0  0  0  0  0  0
   18.7384   -5.0754   -2.7037 O   0  0  0  0  0  0  0  0  0  0  0  0
   16.8995   -5.4644   -4.1440 C   0  0  1  0  0  0  0  0  0  0  0  0
   15.5735   -5.9331   -4.0644 O   0  0  0  0  0  0  0  0  0  0  0  0
   16.8141   -4.0474   -4.6963 C   0  0  1  0  0  0  0  0  0  0  0  0
   16.5330   -4.0097   -6.0387 O   0  0  0  0  0  0  0  0  0  0  0  0
  1  2  1  0
  3  2  1  6
  3  4  1  0
  4  5  1  0
  5  6  1  0
  6  7  1  6
  6  8  1  0
  8  9  1  1
  8 10  1  0
 10 11  1  6
 10  3  1  0
M  RAD  1   5   2
M  END
>  <docking_score>  (1) 
-3.5259999999999998

$$$$

     RDKit          3D

 11 11  0  0  0  0  0  0  0  0999 V2000
   11.1161   14.7210    5.1423 O   0  0  0  0  0  0  0  0  0  0  0  0
   10.7550   14.8202    3.8098 C   0  0  0  0  0  0  0  0  0  0  0  0
    9.3671   14.4184    3.5069 C   0  0  2  0  0  0  0  0  0  0  0  0
    9.0701   13.0269    3.7309 N   0  0  0  0  0  0  0  0  0  0  0  0
    7.6271   12.8955    3.7881 C   0  0  0  0  0  3  0  0  0  0  0  0
    6.9238   13.4319    2.5937 C   0  0  2  0  0  0  0  0  0  0  0  0
    7.0020   12.5933    1.5083 O   0  0  0  0  0  0  0  0  0  0  0  0
    7.3758   14.8271    2.1996 C   0  0  1  0  0  0  0  0  0  0  0  0
    7.0670   15.6630    3.2906 O   0  0  0  0  0  0  0  0  0  0  0  0
    8.8962   14.7757    2.1240 C   0  0  1  0  0  0  0  0  0  0  0  0
    9.4489   15.9280    1.6250 O   0  0  0  0  0  0  0  0  0  0  0  0
  1  2  1  0
  3  2  1  6
  3  4  1  0
  4  5  1  0
  5  6  1  0
  6  7  1  6
  6  8  1  0
  8  9  1  1
  8 10  1  0
 10 11  1  1
 10  3  1  0
M  RAD  1   5   2
M  END
>  <docking_score>  (2) 
-3.488

$$$$

     RDKit          3D

 11 11  0  0  0  0  0  0  0  0999 V2000
   14.2549    0.0821   -5.2694 O   0  0  0  0  0  0  0  0  0  0  0  0
   14.3101   -0.7809   -4.1886 C   0  0  0  0  0  0  0  0  0  0  0  0
   15.1790   -1.9599   -4.3742 C   0  0  2  0  0  0  0  0  0  0  0  0
   14.5485   -3.0918   -5.0035 N   0  0  0  0  0  0  0  0  0  0  0  0
   15.6029   -3.9696   -5.4730 C   0  0  0  0  0  3  0  0  0  0  0  0
   16.5623   -4.3810   -4.4150 C   0  0  2  0  0  0  0  0  0  0  0  0
   16.0579   -5.3553   -3.5882 O   0  0  0  0  0  0  0  0  0  0  0  0
   17.0838   -3.2210   -3.5851 C   0  0  1  0  0  0  0  0  0  0  0  0
   17.7681   -2.3744   -4.4792 O   0  0  0  0  0  0  0  0  0  0  0  0
   15.8578   -2.4444   -3.1227 C   0  0  1  0  0  0  0  0  0  0  0  0
   16.1581   -1.4489   -2.2276 O   0  0  0  0  0  0  0  0  0  0  0  0
  1  2  1  0
  3  2  1  1
  3  4  1  0
  4  5  1  0
  5  6  1  0
  6  7  1  1
  6  8  1  0
  8  9  1  6
  8 10  1  0
 10 11  1  1
 10  3  1  0
M  RAD  1   5   2
M  END
>  <docking_score>  (3) 
-3.3919999999999999

$$$$
