
     RDKit          3D

 57 59  0  0  0  0  0  0  0  0999 V2000
    5.5740    5.8648    6.1410 C   0  0  0  0  0  0  0  0  0  0  0  0
    5.2405    4.5982    5.3499 C   0  0  2  0  0  0  0  0  0  0  0  0
    5.8463    3.4337    6.1007 C   0  0  0  0  0  0  0  0  0  0  0  0
    5.8777    4.6371    3.9845 C   0  0  0  0  0  0  0  0  0  0  0  0
    5.0594    5.4044    2.9843 C   0  0  0  0  0  0  0  0  0  0  0  0
    5.1473    6.8846    3.1518 C   0  0  0  0  0  0  0  0  0  0  0  0
    6.2562    7.5014    2.3243 C   0  0  1  0  0  0  0  0  0  0  0  0
    5.8870    7.5036    0.8380 C   0  0  0  0  0  0  0  0  0  0  0  0
    6.5549    8.9050    2.8065 C   0  0  0  0  0  3  0  0  0  0  0  0
    6.0047    9.9133    1.8499 C   0  0  0  0  0  0  0  0  0  0  0  0
    6.5595   11.2873    2.0128 C   0  0  0  0  0  0  0  0  0  0  0  0
    6.3137   11.8994    3.3537 C   0  0  1  0  0  0  0  0  0  0  0  0
    7.6706   11.9934    4.0632 C   0  0  0  0  0  0  0  0  0  0  0  0
    5.7366   13.2746    3.3118 C   0  0  1  0  0  0  0  0  0  0  0  0
    5.4542   13.6904    1.9121 C   0  0  0  0  0  0  0  0  0  0  0  0
    4.7143   14.9756    1.7724 C   0  0  1  0  0  0  0  0  0  0  0  0
    5.5930   15.9916    1.0940 C   0  0  0  0  0  0  0  0  0  0  0  0
    3.4459   14.8567    0.9524 C   0  0  0  0  0  0  0  0  0  0  0  0
    2.4919   13.8315    1.5153 C   0  0  0  0  0  0  0  0  0  0  0  0
    3.3191   12.6396    1.9458 C   0  0  2  0  0  0  0  0  0  0  0  0
    3.4779   11.7272    0.9078 O   0  0  0  0  0  0  0  0  0  0  0  0
    2.8430   12.0184    3.2128 C   0  0  0  0  0  3  0  0  0  0  0  0
    3.7067   12.2709    4.4011 C   0  0  1  0  0  0  0  0  0  0  0  0
    2.7737   12.5557    5.5844 C   0  0  0  0  0  0  0  0  0  0  0  0
    4.4872   11.1869    4.7752 O   0  0  0  0  0  0  0  0  0  0  0  0
    4.3566   10.8811    6.1261 C   0  0  0  0  0  3  0  0  0  0  0  0
    5.6818   10.4419    6.6937 C   0  0  0  0  0  0  0  0  0  0  0  0
    5.9559    9.0369    6.1517 C   0  0  0  0  0  0  0  0  0  0  0  0
    4.6492    8.2718    6.2323 C   0  0  0  0  0  0  0  0  0  0  0  0
    4.6066    7.5673    7.5898 C   0  0  1  0  0  0  0  0  0  0  0  0
    3.3393    7.9968    8.2831 C   0  0  0  0  0  0  0  0  0  0  0  0
    4.5980    6.0703    7.2753 C   0  0  2  0  0  0  0  0  0  0  0  0
    5.0035    5.4158    8.4283 O   0  0  0  0  0  0  0  0  0  0  0  0
    3.9518    4.8307    9.1220 C   0  0  0  0  0  0  0  0  0  0  0  0
    3.3044    5.7473   10.1116 C   0  0  0  0  0  0  0  0  0  0  0  0
    4.2363    6.1131   11.2469 C   0  0  1  0  0  0  0  0  0  0  0  0
    5.1937    6.9945   10.7787 O   0  0  0  0  0  0  0  0  0  0  0  0
    3.4206    6.7242   12.3858 C   0  0  1  0  0  0  0  0  0  0  0  0
    3.5790    5.9299   13.6555 C   0  0  0  0  0  0  0  0  0  0  0  0
    3.9537    8.1201   12.6273 C   0  0  0  0  0  0  0  0  0  0  0  0
    3.4834    8.6373   13.9825 C   0  0  0  0  0  0  0  0  0  0  0  0
    2.3927    9.6625   13.7496 C   0  0  0  0  0  0  0  0  0  0  0  0
    2.7870   10.9827   14.3963 C   0  0  0  0  0  0  0  0  0  0  0  0
    3.1747   11.9825   13.3398 C   0  0  0  0  0  0  0  0  0  0  0  0
    2.4298   13.2845   13.5569 C   0  0  1  0  0  0  0  0  0  0  0  0
    2.6580   13.8045   14.9570 C   0  0  0  0  0  0  0  0  0  0  0  0
    2.9037   14.2977   12.5214 C   0  0  0  0  0  0  0  0  0  0  0  0
    3.2135   13.5939   11.2193 C   0  0  0  0  0  0  0  0  0  0  0  0
    2.6662   14.4039   10.0596 C   0  0  0  0  0  3  0  0  0  0  0  0
    3.5558   15.6123    9.8668 C   0  0  0  0  0  0  0  0  0  0  0  0
    3.5392   16.0456    8.4244 C   0  0  0  0  0  0  0  0  0  0  0  0
    2.9815   15.0869    7.6121 O   0  0  0  0  0  0  0  0  0  0  0  0
    3.4116   15.1295    6.3700 O   0  0  0  0  0  0  0  0  0  0  0  0
    4.7749   14.9946    6.2565 C   0  0  0  0  0  0  0  0  0  0  0  0
    5.2226   13.7062    5.6501 C   0  0  0  0  0  0  0  0  0  0  0  0
    4.6016   13.4720    4.2658 C   0  0  1  0  0  0  0  0  0  0  0  0
    3.7919   14.6937    3.9482 C   0  0  0  0  0  2  0  0  0  0  0  0
  1  2  1  0
  2  3  1  1
  2  4  1  0
  4  5  1  0
  5  6  1  0
  6  7  1  0
  7  8  1  6
  7  9  1  0
  9 10  1  0
 10 11  1  0
 11 12  1  0
 12 13  1  6
 12 14  1  0
 14 15  1  6
 15 16  1  0
 16 17  1  6
 16 18  1  0
 18 19  1  0
 19 20  1  0
 20 21  1  6
 20 22  1  0
 22 23  1  0
 23 24  1  1
 23 25  1  0
 25 26  1  0
 26 27  1  0
 27 28  1  0
 28 29  1  0
 29 30  1  0
 30 31  1  6
 30 32  1  0
 32 33  1  0
 33 34  1  0
 34 35  1  0
 35 36  1  0
 36 37  1  6
 36 38  1  0
 38 39  1  1
 38 40  1  0
 40 41  1  0
 41 42  1  0
 42 43  1  0
 43 44  1  0
 44 45  1  0
 45 46  1  1
 45 47  1  0
 47 48  1  0
 48 49  1  0
 49 50  1  0
 50 51  1  0
 51 52  1  0
 52 53  1  0
 53 54  1  0
 54 55  1  0
 55 56  1  0
 56 57  1  6
 32  1  1  6
 56 14  1  0
 56 23  1  0
M  RAD  5   9   2  22   2  26   2  49   2  57   3
M  END
>  <docking_score>  (1) 
97.984999999999999

$$$$
