
     RDKit          3D

 37 37  0  0  0  0  0  0  0  0999 V2000
    6.9568   14.4740    2.8626 C   0  0  0  0  0  0  0  0  0  0  0  0
    7.5621   14.4411    4.2110 C   0  0  0  0  0  0  0  0  0  0  0  0
    7.6793   13.3724    4.9275 N   0  0  0  0  0  0  0  0  0  0  0  0
    7.1853   12.1372    4.3688 C   0  0  0  0  0  0  0  0  0  0  0  0
    6.3350   12.1716    3.4435 O   0  0  0  0  0  0  0  0  0  0  0  0
    7.7260   10.9258    4.9377 C   0  0  0  0  0  0  0  0  0  0  0  0
    7.1212    9.7787    5.0394 C   0  0  0  0  0  0  0  0  0  0  0  0
    5.7832    9.5028    4.5971 C   0  0  2  0  0  0  0  0  0  0  0  0
    4.7028   10.4065    5.0566 C   0  0  0  0  0  0  0  0  0  0  0  0
    3.4212    9.7964    4.8769 N   0  0  0  0  0  0  0  0  0  0  0  0
    2.7182    9.9347    3.6068 C   0  0  0  0  0  0  0  0  0  0  0  0
    2.8186    9.0553    5.9261 C   0  0  0  0  0  0  0  0  0  0  0  0
    2.8299    9.4020    7.1935 C   0  0  0  0  0  0  0  0  0  0  0  0
    2.4769    9.1579    8.5421 C   0  0  0  0  0  0  0  0  0  0  0  0
    3.1704   10.2644    8.3122 C   0  0  0  0  0  0  0  0  0  0  0  0
    3.8068   11.4719    8.8415 C   0  0  0  0  0  0  0  0  0  0  0  0
    4.9037   11.4119    9.4433 O   0  0  0  0  0  0  0  0  0  0  0  0
    3.2118   12.7570    8.6974 N   0  0  0  0  0  0  0  0  0  0  0  0
    3.8650   13.9076    9.2306 C   0  0  1  0  0  0  0  0  0  0  0  0
    4.4603   14.6942    8.0629 C   0  0  0  0  0  0  0  0  0  0  0  0
    5.1423   15.9401    8.5268 C   0  0  0  0  0  0  0  0  0  0  0  0
    6.4210   15.5833    9.1741 C   0  0  0  0  0  0  0  0  0  0  0  0
    6.4258   15.3300   10.4020 O   0  0  0  0  0  0  0  0  0  0  0  0
    7.5985   15.5393    8.3822 N   0  0  0  0  0  0  0  0  0  0  0  0
    2.9837   14.8161    9.9730 C   0  0  0  0  0  0  0  0  0  0  0  0
    2.4148   15.7161    9.4069 O   0  0  0  0  0  0  0  0  0  0  0  0
    2.7882   14.6320   11.4251 C   0  0  0  0  0  2  0  0  0  0  0  0
    5.4319    8.2056    4.2377 N   0  0  0  0  0  4  0  0  0  0  0  0
    4.9098    7.9385    3.1087 C   0  0  0  0  0  0  0  0  0  0  0  0
    5.6520    7.1083    5.1478 C   0  0  2  0  0  0  0  0  0  0  0  0
    6.9565    6.5841    5.0012 O   0  0  0  0  0  0  0  0  0  0  0  0
    4.7846    6.0397    4.6714 N   0  0  0  0  0  3  0  0  0  0  0  0
    3.7721    5.7751    5.4074 C   0  0  0  0  0  0  0  0  0  0  0  0
    2.8145    4.7826    5.1280 N   0  0  0  0  0  2  0  0  0  0  0  0
    2.4786    4.8280    3.7410 C   0  0  0  0  0  0  0  0  0  0  0  0
    2.2586    3.7923    3.1312 O   0  0  0  0  0  0  0  0  0  0  0  0
    2.4087    6.1081    3.0957 N   0  0  0  0  0  1  0  0  0  0  0  0
  1  2  1  0
  2  3  2  3
  3  4  1  0
  4  5  2  0
  4  6  1  0
  6  7  2  3
  7  8  1  0
  8  9  1  1
  9 10  1  0
 10 11  1  0
 10 12  1  0
 12 13  2  3
 13 14  1  0
 14 15  2  0
 15 16  1  0
 16 17  2  0
 16 18  1  0
 18 19  1  0
 19 20  1  6
 20 21  1  0
 21 22  1  0
 22 23  2  0
 22 24  1  0
 19 25  1  0
 25 26  2  0
 25 27  1  0
  8 28  1  0
 28 29  2  0
 28 30  1  0
 30 31  1  6
 30 32  1  0
 32 33  2  3
 33 34  1  0
 34 35  1  0
 35 36  2  0
 35 37  1  0
 15 13  1  0
M  CHG  4  28   1  32   1  34   1  37   1
M  RAD  4  27   3  32   2  34   3  37   2
M  END
>  <docking_score>  (1) 
-1.6990000000000001

$$$$

     RDKit          3D

 37 37  0  0  0  0  0  0  0  0999 V2000
   16.7381   -2.9577   -1.4447 C   0  0  0  0  0  0  0  0  0  0  0  0
   17.3493   -1.6129   -1.3837 C   0  0  0  0  0  0  0  0  0  0  0  0
   18.3677   -1.2463   -2.0892 N   0  0  0  0  0  0  0  0  0  0  0  0
   18.9386   -2.2172   -2.9910 C   0  0  0  0  0  0  0  0  0  0  0  0
   20.1514   -2.5289   -2.8796 O   0  0  0  0  0  0  0  0  0  0  0  0
   18.0405   -2.7673   -3.9780 C   0  0  0  0  0  0  0  0  0  0  0  0
   17.5924   -2.1659   -5.0408 C   0  0  0  0  0  0  0  0  0  0  0  0
   17.9144   -0.8227   -5.4332 C   0  0  2  0  0  0  0  0  0  0  0  0
   16.8441    0.1983   -5.3476 C   0  0  0  0  0  0  0  0  0  0  0  0
   15.5539   -0.4199   -5.3352 N   0  0  0  0  0  0  0  0  0  0  0  0
   14.9846   -0.8965   -4.0800 C   0  0  0  0  0  0  0  0  0  0  0  0
   14.8159   -0.5796   -6.5364 C   0  0  0  0  0  0  0  0  0  0  0  0
   14.9963   -1.5483   -7.4058 C   0  0  0  0  0  0  0  0  0  0  0  0
   14.6590   -2.1961   -8.6180 C   0  0  0  0  0  0  0  0  0  0  0  0
   15.6349   -2.7510   -7.9125 C   0  0  0  0  0  0  0  0  0  0  0  0
   16.6265   -3.8196   -7.7777 C   0  0  0  0  0  0  0  0  0  0  0  0
   17.6070   -3.8913   -8.5538 O   0  0  0  0  0  0  0  0  0  0  0  0
   16.5209   -4.8166   -6.7671 N   0  0  0  0  0  0  0  0  0  0  0  0
   17.5083   -5.8417   -6.6727 C   0  0  1  0  0  0  0  0  0  0  0  0
   17.7563   -6.1212   -5.1905 C   0  0  0  0  0  0  0  0  0  0  0  0
   19.0602   -6.8168   -4.9703 C   0  0  0  0  0  0  0  0  0  0  0  0
   19.6547   -6.3476   -3.7023 C   0  0  0  0  0  0  0  0  0  0  0  0
   19.1885   -6.7787   -2.6212 O   0  0  0  0  0  0  0  0  0  0  0  0
   20.7332   -5.4259   -3.7534 N   0  0  0  0  0  0  0  0  0  0  0  0
   17.1282   -7.1102   -7.3049 C   0  0  0  0  0  0  0  0  0  0  0  0
   16.5877   -7.9765   -6.6635 O   0  0  0  0  0  0  0  0  0  0  0  0
   17.4077   -7.3337   -8.7377 C   0  0  0  0  0  2  0  0  0  0  0  0
   18.9499   -0.5997   -6.3350 N   0  0  0  0  0  4  0  0  0  0  0  0
   19.0952   -1.3088   -7.3812 C   0  0  0  0  0  0  0  0  0  0  0  0
   19.9044    0.4578   -6.1074 C   0  0  2  0  0  0  0  0  0  0  0  0
   20.8894    0.0574   -5.1759 O   0  0  0  0  0  0  0  0  0  0  0  0
   19.1598    1.4982   -5.4114 N   0  0  0  0  0  3  0  0  0  0  0  0
   19.0819    2.6242   -6.0137 C   0  0  0  0  0  0  0  0  0  0  0  0
   18.4110    3.7562   -5.5151 N   0  0  0  0  0  2  0  0  0  0  0  0
   18.8063    4.9065   -6.2629 C   0  0  0  0  0  0  0  0  0  0  0  0
   18.8040    4.8721   -7.4843 O   0  0  0  0  0  0  0  0  0  0  0  0
   19.2003    6.0860   -5.5463 N   0  0  0  0  0  1  0  0  0  0  0  0
  1  2  1  0
  2  3  2  3
  3  4  1  0
  4  5  2  0
  4  6  1  0
  6  7  2  3
  7  8  1  0
  8  9  1  6
  9 10  1  0
 10 11  1  0
 10 12  1  0
 12 13  2  3
 13 14  1  0
 14 15  2  0
 15 16  1  0
 16 17  2  0
 16 18  1  0
 18 19  1  0
 19 20  1  1
 20 21  1  0
 21 22  1  0
 22 23  2  0
 22 24  1  0
 19 25  1  0
 25 26  2  0
 25 27  1  0
  8 28  1  0
 28 29  2  0
 28 30  1  0
 30 31  1  1
 30 32  1  0
 32 33  2  3
 33 34  1  0
 34 35  1  0
 35 36  2  0
 35 37  1  0
 15 13  1  0
M  CHG  4  28   1  32   1  34   1  37   1
M  RAD  4  27   3  32   2  34   3  37   2
M  END
>  <docking_score>  (2) 
-1.393

$$$$
