
     RDKit          3D

 54 56  0  0  0  0  0  0  0  0999 V2000
   17.6873   -3.2022   -5.4782 C   0  0  1  0  0  0  0  0  0  0  0  0
   18.4377   -4.1063   -6.4289 C   0  0  1  0  0  0  0  0  0  0  0  0
   19.0532   -3.3780   -7.5716 C   0  0  0  0  0  0  0  0  0  0  0  0
   19.2476   -5.1576   -5.8119 C   0  0  0  0  0  0  0  0  0  0  0  0
   20.4436   -5.4422   -6.7195 C   0  0  0  0  0  0  0  0  0  0  0  0
   20.7201   -6.9457   -6.7636 C   0  0  0  0  0  0  0  0  0  0  0  0
   20.2202   -7.4840   -8.1087 C   0  0  1  0  0  0  0  0  0  0  0  0
   21.3401   -8.2734   -8.7169 C   0  0  0  0  0  0  0  0  0  0  0  0
   19.0135   -8.3405   -7.7896 C   0  0  0  0  0  3  0  0  0  0  0  0
   18.2184   -7.8074   -6.6382 C   0  0  0  0  0  3  0  0  0  0  0  0
   16.8179   -8.3142   -6.6632 C   0  0  0  0  0  0  0  0  0  0  0  0
   16.2346   -8.5411   -5.2967 C   0  0  2  0  0  0  0  0  0  0  0  0
   14.9516   -9.3023   -5.3133 C   0  0  2  0  0  0  0  0  0  0  0  0
   14.0255   -8.5997   -6.3145 C   0  0  0  0  0  0  0  0  0  0  0  0
   14.3358   -9.1880   -4.0053 N   0  0  0  0  0  1  0  0  0  0  0  0
   15.1151  -10.7520   -5.6928 C   0  0  0  0  0  0  0  0  0  0  0  0
   16.5771  -11.1114   -5.8483 C   0  0  0  0  0  0  0  0  0  0  0  0
   17.3486  -10.9389   -4.5823 C   0  0  1  0  0  0  0  0  0  0  0  0
   18.2820   -9.9047   -4.6508 O   0  0  0  0  0  0  0  0  0  0  0  0
   16.4608  -10.7960   -3.3632 C   0  0  0  0  0  0  0  0  0  0  0  0
   16.1964  -12.1249   -2.6891 C   0  0  0  0  0  0  0  0  0  0  0  0
   16.0361   -7.2675   -4.5246 C   0  0  0  0  0  0  0  0  0  0  0  0
   16.5473   -6.0537   -5.3151 C   0  0  1  0  0  0  0  0  0  0  0  0
   15.7752   -6.1212   -6.6417 C   0  0  0  0  0  0  0  0  0  0  0  0
   15.0932   -4.8060   -6.9299 C   0  0  0  0  0  0  0  0  0  0  0  0
   16.1115   -3.7977   -7.3519 C   0  0  1  0  0  0  0  0  0  0  0  0
   15.8269   -3.1702   -8.6782 C   0  0  0  0  0  0  0  0  0  0  0  0
   16.3987   -2.8360   -6.2574 C   0  0  0  0  0  3  0  0  0  0  0  0
   16.0721   -4.8457   -4.5976 C   0  0  1  0  0  0  0  0  0  0  0  0
   15.2178   -5.1267   -3.4078 C   0  0  0  0  0  0  0  0  0  0  0  0
   17.2351   -3.8795   -4.2509 C   0  0  1  0  0  0  0  0  0  0  0  0
   18.1900   -4.7648   -3.7181 F   0  0  0  0  0  0  0  0  0  0  0  0
   16.6939   -3.1013   -3.1347 C   0  0  0  0  0  0  0  0  0  0  0  0
   16.4810   -3.7015   -1.8162 C   0  0  0  0  0  0  0  0  0  0  0  0
   17.4428   -3.2757   -0.7979 C   0  0  1  0  0  0  0  0  0  0  0  0
   18.6139   -4.1372   -0.5276 C   0  0  0  0  0  0  0  0  0  0  0  0
   17.5488   -1.8601   -0.3889 C   0  0  2  0  0  0  0  0  0  0  0  0
   16.3487   -1.0123   -0.5714 C   0  0  0  0  0  0  0  0  0  0  0  0
   18.8633   -1.2795   -0.7768 C   0  0  0  0  0  0  0  0  0  0  0  0
   18.8686   -0.0326   -1.5669 C   0  0  0  0  0  0  0  0  0  0  0  0
   20.1900    0.2976   -2.2249 C   0  0  2  0  0  0  0  0  0  0  0  0
   21.3550   -0.3908   -1.6073 C   0  0  0  0  0  2  0  0  0  0  0  0
   20.3899    1.7935   -2.0821 C   0  0  0  0  0  0  0  0  0  0  0  0
   20.1380   -0.0155   -4.1095 Si  0  0  0  0  0  2  0  0  0  0  0  0
   18.8280   -1.3734   -4.1865 C   0  0  1  0  0  0  0  0  0  0  0  0
   18.4318   -1.9263   -5.4343 C   0  0  0  0  0  0  0  0  0  0  0  0
   19.4494   -2.4111   -3.3176 C   0  0  0  0  0  0  0  0  0  0  0  0
   20.7600   -2.9202   -3.8105 C   0  0  0  0  0  2  0  0  0  0  0  0
   17.6768   -0.5749   -3.6086 C   0  0  0  0  0  0  0  0  0  0  0  0
   16.4237   -1.4193   -3.8543 C   0  0  0  0  0  0  0  0  0  0  0  0
   15.1813   -0.6266   -3.6030 C   0  0  0  0  0  0  0  0  0  0  0  0
   14.8524    0.1331   -4.8919 C   0  0  0  0  0  0  0  0  0  0  0  0
   13.5071   -0.2683   -5.4106 C   0  0  0  0  0  3  0  0  0  0  0  0
   13.2820    0.1685   -6.8224 C   0  0  0  0  0  0  0  0  0  0  0  0
  1  2  1  0
  2  3  1  1
  2  4  1  0
  4  5  1  0
  5  6  1  0
  6  7  1  0
  7  8  1  1
  7  9  1  0
  9 10  1  0
 10 11  1  0
 12 11  1  6
 12 13  1  0
 13 14  1  6
 13 15  1  0
 13 16  1  0
 16 17  1  0
 17 18  1  0
 18 19  1  6
 18 20  1  0
 20 21  1  0
 12 22  1  0
 23 22  1  1
 23 24  1  0
 24 25  1  0
 25 26  1  0
 26 27  1  6
 26 28  1  0
 23 29  1  0
 29 30  1  1
 29 31  1  0
 31 32  1  1
 31 33  1  0
 33 34  1  0
 34 35  1  0
 35 36  1  6
 35 37  1  0
 37 38  1  6
 37 39  1  0
 39 40  1  0
 40 41  1  0
 41 42  1  1
 41 43  1  0
 41 44  1  0
 44 45  1  0
 45 46  1  0
 45 47  1  1
 47 48  1  0
 45 49  1  0
 49 50  1  0
 50 51  1  0
 51 52  1  0
 52 53  1  0
 53 54  1  0
  1 28  1  6
 31  1  1  0
 46  1  1  0
M  RAD  8   9   2  10   2  15   2  28   2  42   3  44   3  48   3  53   2
M  CHG  1  15   1
M  END
>  <docking_score>  (1) 
25.992999999999999

$$$$
