
     RDKit          3D

 15 16  0  0  0  0  0  0  0  0999 V2000
   15.4445   -2.2506   -7.7293 C   0  0  0  0  0  0  0  0  0  0  0  0
   16.5525   -2.4772   -6.7174 C   0  0  1  0  0  0  0  0  0  0  0  0
   16.6936   -1.1969   -5.8984 C   0  0  2  0  0  0  0  0  0  0  0  0
   17.1716   -1.5901   -4.6363 O   0  0  0  0  0  0  0  0  0  0  0  0
   15.4025   -0.7316   -5.7233 O   0  0  0  0  0  0  0  0  0  0  0  0
   14.5852   -1.5302   -4.9952 C   0  0  2  0  0  0  0  0  0  0  0  0
   14.6093   -1.0464   -3.6637 O   0  0  0  0  0  0  0  0  0  0  0  0
   14.8230   -2.9695   -4.9826 C   0  0  1  0  0  0  0  0  0  0  0  0
   13.6529   -3.6344   -5.3757 O   0  0  0  0  0  0  0  0  0  0  0  0
   15.9861   -3.4915   -5.7167 C   0  0  1  0  0  0  0  0  0  0  0  0
   15.6519   -4.7313   -6.4190 N   0  0  0  0  0  0  0  0  0  0  0  0
   16.6041   -5.7642   -6.0338 C   0  0  0  0  0  3  0  0  0  0  0  0
   15.8935   -6.8841   -5.2666 C   0  0  2  0  0  0  0  0  0  0  0  0
   14.6538   -6.8817   -4.7379 C   0  0  0  0  0  0  0  0  0  0  0  0
   15.6341   -6.3677   -3.9166 O   0  0  0  0  0  0  0  0  0  0  0  0
  2  1  1  6
  2  3  1  0
  3  4  1  1
  3  5  1  0
  5  6  1  0
  6  7  1  1
  6  8  1  0
  8  9  1  6
  8 10  1  0
 10 11  1  6
 11 12  1  0
 13 12  1  6
 13 14  1  0
 13 15  1  0
 10  2  1  0
 15 14  1  0
M  RAD  1  12   2
M  END
>  <docking_score>  (1) 
-4.2069999999999999

$$$$

     RDKit          3D

 15 16  0  0  0  0  0  0  0  0999 V2000
   18.5336   -4.0213   -4.8208 C   0  0  0  0  0  0  0  0  0  0  0  0
   17.1782   -4.6489   -5.0891 C   0  0  1  0  0  0  0  0  0  0  0  0
   17.0034   -5.8005   -4.1026 C   0  0  2  0  0  0  0  0  0  0  0  0
   15.6199   -5.9253   -3.8875 O   0  0  0  0  0  0  0  0  0  0  0  0
   17.5659   -5.3561   -2.9194 O   0  0  0  0  0  0  0  0  0  0  0  0
   16.9516   -4.2964   -2.3399 C   0  0  2  0  0  0  0  0  0  0  0  0
   16.0647   -4.8131   -1.3633 O   0  0  0  0  0  0  0  0  0  0  0  0
   16.2325   -3.3443   -3.1794 C   0  0  1  0  0  0  0  0  0  0  0  0
   16.7270   -2.0540   -2.9420 O   0  0  0  0  0  0  0  0  0  0  0  0
   16.1512   -3.6095   -4.6241 C   0  0  1  0  0  0  0  0  0  0  0  0
   16.3239   -2.3779   -5.3956 N   0  0  0  0  0  0  0  0  0  0  0  0
   15.0175   -1.9118   -5.8407 C   0  0  0  0  0  3  0  0  0  0  0  0
   14.8018   -0.4535   -5.4230 C   0  0  2  0  0  0  0  0  0  0  0  0
   13.8631    0.0518   -4.5985 C   0  0  0  0  0  0  0  0  0  0  0  0
   13.4725   -0.0693   -5.9147 O   0  0  0  0  0  0  0  0  0  0  0  0
  2  1  1  1
  2  3  1  0
  3  4  1  1
  3  5  1  0
  5  6  1  0
  6  7  1  1
  6  8  1  0
  8  9  1  6
  8 10  1  0
 10 11  1  6
 11 12  1  0
 13 12  1  1
 13 14  1  0
 13 15  1  0
 10  2  1  0
 15 14  1  0
M  RAD  1  12   2
M  END
>  <docking_score>  (2) 
-4.181

$$$$

     RDKit          3D

 15 16  0  0  0  0  0  0  0  0999 V2000
   14.7683   -6.7016   -4.6803 C   0  0  0  0  0  0  0  0  0  0  0  0
   16.2409   -6.4387   -4.9358 C   0  0  1  0  0  0  0  0  0  0  0  0
   16.4506   -6.4393   -6.4477 C   0  0  2  0  0  0  0  0  0  0  0  0
   17.5440   -5.5903   -6.6917 O   0  0  0  0  0  0  0  0  0  0  0  0
   15.3272   -5.8253   -6.9723 O   0  0  0  0  0  0  0  0  0  0  0  0
   15.1609   -4.5228   -6.6378 C   0  0  2  0  0  0  0  0  0  0  0  0
   15.6977   -3.7498   -7.6968 O   0  0  0  0  0  0  0  0  0  0  0  0
   15.7028   -4.0381   -5.3729 C   0  0  1  0  0  0  0  0  0  0  0  0
   14.6762   -3.4377   -4.6305 O   0  0  0  0  0  0  0  0  0  0  0  0
   16.4667   -4.9759   -4.5354 C   0  0  1  0  0  0  0  0  0  0  0  0
   16.1383   -4.8041   -3.1196 N   0  0  0  0  0  0  0  0  0  0  0  0
   17.3533   -4.4664   -2.3902 C   0  0  0  0  0  3  0  0  0  0  0  0
   17.3663   -2.9749   -2.0392 C   0  0  2  0  0  0  0  0  0  0  0  0
   17.8943   -1.9533   -2.7420 C   0  0  0  0  0  0  0  0  0  0  0  0
   18.7764   -2.5906   -1.8963 O   0  0  0  0  0  0  0  0  0  0  0  0
  2  1  1  6
  2  3  1  0
  3  4  1  1
  3  5  1  0
  5  6  1  0
  6  7  1  6
  6  8  1  0
  8  9  1  1
  8 10  1  0
 10 11  1  1
 11 12  1  0
 13 12  1  6
 13 14  1  0
 13 15  1  0
 10  2  1  0
 15 14  1  0
M  RAD  1  12   2
M  END
>  <docking_score>  (3) 
-3.8639999999999999

$$$$
