
     RDKit          3D

 27 28  0  0  0  0  0  0  0  0999 V2000
   17.3349   -6.7311   -4.6252 C   0  0  0  0  0  0  0  0  0  0  0  0
   18.3680   -7.7551   -5.0178 C   0  0  2  0  0  0  0  0  0  0  0  0
   17.6230   -9.0446   -5.3580 C   0  0  0  0  0  0  0  0  0  0  0  0
   19.3197   -8.0902   -3.8991 C   0  0  0  0  0  0  0  0  0  0  0  0
   20.7568   -8.1048   -4.3525 C   0  0  0  0  0  0  0  0  0  0  0  0
   21.3825   -6.7941   -3.8589 C   0  0  0  0  0  0  0  0  0  0  0  0
   20.3620   -5.7228   -4.0481 C   0  0  1  0  0  0  0  0  0  0  0  0
   19.1693   -5.8315   -3.1644 C   0  0  0  0  0  0  0  0  0  0  0  0
   20.9082   -4.3527   -4.2152 C   0  0  0  0  0  3  0  0  0  0  0  0
   21.3824   -3.7186   -2.9271 C   0  0  0  0  0  3  0  0  0  0  0  0
   21.0758   -2.2372   -3.0260 C   0  0  0  0  0  0  0  0  0  0  0  0
   20.1829   -1.8155   -1.9020 C   0  0  2  0  0  0  0  0  0  0  0  0
   21.0325   -1.0710   -0.8855 C   0  0  0  0  0  0  0  0  0  0  0  0
   19.5469   -3.0318   -1.2725 C   0  0  0  0  0  0  0  0  0  0  0  0
   18.0596   -2.9100   -1.3461 C   0  0  0  0  0  0  0  0  0  0  0  0
   17.4482   -3.4902   -2.5760 C   0  0  1  0  0  0  0  0  0  0  0  0
   16.1611   -2.7465   -2.8655 C   0  0  0  0  0  0  0  0  0  0  0  0
   16.3194   -2.0910   -4.2232 C   0  0  0  0  0  0  0  0  0  0  0  0
   15.1816   -2.4880   -5.1198 C   0  0  2  0  0  0  0  0  0  0  0  0
   14.0659   -1.6789   -4.9895 O   0  0  0  0  0  0  0  0  0  0  0  0
   14.8046   -3.9333   -4.9781 C   0  0  0  0  0  0  0  0  0  0  0  0
   13.6579   -4.2272   -5.9340 C   0  0  0  0  0  0  0  0  0  0  0  0
   13.8548   -5.6235   -6.4712 C   0  0  0  0  0  0  0  0  0  0  0  0
   15.1328   -5.6736   -7.3095 C   0  0  0  0  0  0  0  0  0  0  0  0
   18.2385   -3.4287   -3.6980 O   0  0  0  0  0  0  0  0  0  0  0  0
   17.8454   -4.3717   -4.5305 O   0  0  0  0  0  0  0  0  0  0  0  0
   17.8814   -5.5733   -3.8698 C   0  0  1  0  0  0  0  0  0  0  0  0
  1  2  1  0
  2  3  1  1
  2  4  1  0
  4  5  1  0
  5  6  1  0
  7  6  1  1
  7  8  1  0
  7  9  1  0
  9 10  1  0
 10 11  1  0
 11 12  1  0
 12 13  1  1
 12 14  1  0
 14 15  1  0
 15 16  1  0
 16 17  1  6
 17 18  1  0
 18 19  1  0
 19 20  1  1
 19 21  1  0
 21 22  1  0
 22 23  1  0
 23 24  1  0
 16 25  1  0
 25 26  1  0
 26 27  1  0
 27  1  1  6
 27  8  1  0
M  RAD  2   9   2  10   2
M  END
>  <docking_score>  (1) 
-5.2610000000000001

$$$$

     RDKit          3D

 27 28  0  0  0  0  0  0  0  0999 V2000
   18.8583   -6.6367   -7.9412 C   0  0  0  0  0  0  0  0  0  0  0  0
   18.8463   -8.0731   -7.4868 C   0  0  2  0  0  0  0  0  0  0  0  0
   18.8795   -8.9462   -8.7400 C   0  0  0  0  0  0  0  0  0  0  0  0
   17.5929   -8.4433   -6.7376 C   0  0  0  0  0  0  0  0  0  0  0  0
   17.8843   -9.2146   -5.4761 C   0  0  0  0  0  0  0  0  0  0  0  0
   17.7221   -8.2264   -4.3141 C   0  0  0  0  0  0  0  0  0  0  0  0
   18.3017   -6.9264   -4.7602 C   0  0  1  0  0  0  0  0  0  0  0  0
   17.5413   -6.2398   -5.8397 C   0  0  0  0  0  0  0  0  0  0  0  0
   18.7945   -6.0476   -3.6701 C   0  0  0  0  0  3  0  0  0  0  0  0
   17.6978   -5.3354   -2.9113 C   0  0  0  0  0  3  0  0  0  0  0  0
   18.2383   -3.9705   -2.5324 C   0  0  0  0  0  0  0  0  0  0  0  0
   17.3690   -2.8924   -3.0984 C   0  0  2  0  0  0  0  0  0  0  0  0
   16.5267   -2.3296   -1.9656 C   0  0  0  0  0  0  0  0  0  0  0  0
   16.4865   -3.4653   -4.1815 C   0  0  0  0  0  0  0  0  0  0  0  0
   16.7332   -2.7358   -5.4620 C   0  0  0  0  0  0  0  0  0  0  0  0
   17.8027   -3.3254   -6.3174 C   0  0  1  0  0  0  0  0  0  0  0  0
   18.4113   -2.2176   -7.1516 C   0  0  0  0  0  0  0  0  0  0  0  0
   18.7076   -1.0636   -6.2142 C   0  0  0  0  0  0  0  0  0  0  0  0
   20.1924   -0.8906   -6.0678 C   0  0  2  0  0  0  0  0  0  0  0  0
   20.9301   -1.6895   -6.9245 O   0  0  0  0  0  0  0  0  0  0  0  0
   20.6624   -1.0598   -4.6530 C   0  0  0  0  0  0  0  0  0  0  0  0
   19.7693   -0.2257   -3.7465 C   0  0  0  0  0  0  0  0  0  0  0  0
   20.5084   -0.0071   -2.4492 C   0  0  0  0  0  0  0  0  0  0  0  0
   20.4547   -1.2836   -1.6086 C   0  0  0  0  0  0  0  0  0  0  0  0
   18.8158   -3.9472   -5.6288 O   0  0  0  0  0  0  0  0  0  0  0  0
   19.3829   -4.8235   -6.4334 O   0  0  0  0  0  0  0  0  0  0  0  0
   18.4105   -5.6671   -6.9071 C   0  0  1  0  0  0  0  0  0  0  0  0
  1  2  1  0
  2  3  1  6
  2  4  1  0
  4  5  1  0
  5  6  1  0
  7  6  1  1
  7  8  1  0
  7  9  1  0
  9 10  1  0
 10 11  1  0
 11 12  1  0
 12 13  1  1
 12 14  1  0
 14 15  1  0
 15 16  1  0
 16 17  1  1
 17 18  1  0
 18 19  1  0
 19 20  1  6
 19 21  1  0
 21 22  1  0
 22 23  1  0
 23 24  1  0
 16 25  1  0
 25 26  1  0
 26 27  1  0
 27  1  1  1
 27  8  1  0
M  RAD  2   9   2  10   2
M  END
>  <docking_score>  (2) 
-4.8339999999999996

$$$$

     RDKit          3D

 27 28  0  0  0  0  0  0  0  0999 V2000
   16.7663   -7.5318   -5.6212 C   0  0  0  0  0  0  0  0  0  0  0  0
   17.9337   -8.4801   -5.7097 C   0  0  2  0  0  0  0  0  0  0  0  0
   17.3719   -9.8629   -6.0350 C   0  0  0  0  0  0  0  0  0  0  0  0
   18.6827   -8.6149   -4.4096 C   0  0  0  0  0  0  0  0  0  0  0  0
   20.1758   -8.5286   -4.5952 C   0  0  0  0  0  0  0  0  0  0  0  0
   20.5903   -7.1225   -4.1435 C   0  0  0  0  0  0  0  0  0  0  0  0
   19.5404   -6.1796   -4.6269 C   0  0  1  0  0  0  0  0  0  0  0  0
   18.2160   -6.3242   -3.9634 C   0  0  0  0  0  0  0  0  0  0  0  0
   19.9962   -4.7833   -4.8418 C   0  0  0  0  0  3  0  0  0  0  0  0
   20.1680   -3.9895   -3.5666 C   0  0  0  0  0  3  0  0  0  0  0  0
   19.7671   -2.5611   -3.8790 C   0  0  0  0  0  0  0  0  0  0  0  0
   18.6484   -2.1284   -2.9847 C   0  0  2  0  0  0  0  0  0  0  0  0
   19.2298   -1.2129   -1.9202 C   0  0  0  0  0  0  0  0  0  0  0  0
   18.0058   -3.3386   -2.3503 C   0  0  0  0  0  0  0  0  0  0  0  0
   16.5537   -3.3720   -2.7006 C   0  0  0  0  0  0  0  0  0  0  0  0
   16.2323   -4.1208   -3.9493 C   0  0  1  0  0  0  0  0  0  0  0  0
   14.9666   -3.5381   -4.5427 C   0  0  0  0  0  0  0  0  0  0  0  0
   15.2200   -3.3343   -6.0234 C   0  0  0  0  0  0  0  0  0  0  0  0
   15.5467   -1.8934   -6.2938 C   0  0  2  0  0  0  0  0  0  0  0  0
   14.6189   -1.2573   -7.1005 O   0  0  0  0  0  0  0  0  0  0  0  0
   16.9339   -1.7014   -6.8324 C   0  0  0  0  0  0  0  0  0  0  0  0
   17.0778   -2.5332   -8.0982 C   0  0  0  0  0  0  0  0  0  0  0  0
   18.3938   -2.1682   -8.7400 C   0  0  0  0  0  0  0  0  0  0  0  0
   19.4481   -3.2144   -8.3758 C   0  0  0  0  0  0  0  0  0  0  0  0
   17.2113   -4.0848   -4.9124 O   0  0  0  0  0  0  0  0  0  0  0  0
   17.0584   -5.1348   -5.6941 O   0  0  0  0  0  0  0  0  0  0  0  0
   17.0666   -6.2608   -4.9109 C   0  0  1  0  0  0  0  0  0  0  0  0
  1  2  1  0
  2  3  1  1
  2  4  1  0
  4  5  1  0
  5  6  1  0
  7  6  1  1
  7  8  1  0
  7  9  1  0
  9 10  1  0
 10 11  1  0
 11 12  1  0
 12 13  1  1
 12 14  1  0
 14 15  1  0
 15 16  1  0
 16 17  1  6
 17 18  1  0
 18 19  1  0
 19 20  1  6
 19 21  1  0
 21 22  1  0
 22 23  1  0
 23 24  1  0
 16 25  1  0
 25 26  1  0
 26 27  1  0
 27  1  1  6
 27  8  1  0
M  RAD  2   9   2  10   2
M  END
>  <docking_score>  (3) 
-4.6950000000000003

$$$$
