
     RDKit          3D

 23 24  0  0  0  0  0  0  0  0999 V2000
   20.3721   -5.3538   -2.8999 C   0  0  0  0  0  0  0  0  0  0  0  0
   19.2320   -4.4344   -2.6085 C   0  0  1  0  0  0  0  0  0  0  0  0
   19.5040   -3.4474   -1.5136 C   0  0  0  0  0  0  0  0  0  0  0  0
   20.1286   -2.1700   -1.9935 C   0  0  2  0  0  0  0  0  0  0  0  0
   20.0205   -1.2158   -0.9782 O   0  0  0  0  0  0  0  0  0  0  0  0
   19.3576   -1.6634   -3.1879 C   0  0  0  0  0  0  0  0  0  0  0  0
   20.1181   -1.9933   -4.3238 O   0  0  0  0  0  0  0  0  0  0  0  0
   19.6519   -3.2417   -4.7610 C   0  0  1  0  0  0  0  0  0  0  0  0
   20.7573   -4.1116   -4.8132 O   0  0  0  0  0  0  0  0  0  0  0  0
   18.6246   -3.8195   -3.8314 C   0  0  1  0  0  0  0  0  0  0  0  0
   17.8530   -4.8019   -4.5288 N   0  0  0  0  0  0  0  0  0  0  0  0
   16.5815   -4.3416   -5.0022 C   0  0  1  0  0  0  0  0  0  0  0  0
   16.0728   -3.2616   -4.1107 C   0  0  0  0  0  0  0  0  0  0  0  0
   15.1135   -2.3928   -4.7616 N   0  0  0  0  0  3  0  0  0  0  0  0
   14.6612   -1.4294   -3.9467 O   0  0  0  0  0  0  0  0  0  0  0  0
   14.1043   -3.0575   -5.4218 N   0  0  0  0  0  0  0  0  0  0  0  0
   14.2180   -4.4670   -5.2123 C   0  0  0  0  0  3  0  0  0  0  0  0
   14.4906   -5.2677   -6.4400 C   0  0  1  0  0  0  0  0  0  0  0  0
   13.3745   -5.4483   -7.2564 O   0  0  0  0  0  0  0  0  0  0  0  0
   15.6296   -4.7468   -7.2803 C   0  0  2  0  0  0  0  0  0  0  0  0
   16.3019   -5.8372   -7.8290 O   0  0  0  0  0  0  0  0  0  0  0  0
   16.6407   -3.9853   -6.4506 C   0  0  1  0  0  0  0  0  0  0  0  0
   16.4822   -2.5931   -6.6378 O   0  0  0  0  0  0  0  0  0  0  0  0
  2  1  1  6
  2  3  1  0
  3  4  1  0
  4  5  1  1
  4  6  1  0
  6  7  1  0
  7  8  1  0
  8  9  1  1
  8 10  1  0
 10 11  1  6
 12 11  1  1
 12 13  1  0
 13 14  1  0
 14 15  1  0
 14 16  1  0
 16 17  1  0
 17 18  1  0
 18 19  1  6
 18 20  1  0
 20 21  1  1
 20 22  1  0
 22 23  1  1
 10  2  1  0
 22 12  1  0
M  CHG  1  14   1
M  RAD  2  14   2  17   2
M  END
>  <docking_score>  (1) 
-5.016

$$$$

     RDKit          3D

 23 24  0  0  0  0  0  0  0  0999 V2000
   19.7012   -3.9882   -1.6291 C   0  0  0  0  0  0  0  0  0  0  0  0
   18.4110   -4.1298   -2.3676 C   0  0  1  0  0  0  0  0  0  0  0  0
   17.2756   -3.3517   -1.7742 C   0  0  0  0  0  0  0  0  0  0  0  0
   17.1690   -1.9477   -2.2937 C   0  0  2  0  0  0  0  0  0  0  0  0
   15.9119   -1.4429   -1.9500 O   0  0  0  0  0  0  0  0  0  0  0  0
   17.2611   -1.9719   -3.7999 C   0  0  0  0  0  0  0  0  0  0  0  0
   18.5676   -1.5672   -4.1269 O   0  0  0  0  0  0  0  0  0  0  0  0
   19.3300   -2.7402   -4.2268 C   0  0  1  0  0  0  0  0  0  0  0  0
   20.4198   -2.6129   -3.3450 O   0  0  0  0  0  0  0  0  0  0  0  0
   18.5422   -3.9610   -3.8498 C   0  0  1  0  0  0  0  0  0  0  0  0
   19.1661   -5.1200   -4.4106 N   0  0  0  0  0  0  0  0  0  0  0  0
   18.3960   -5.7891   -5.4165 C   0  0  1  0  0  0  0  0  0  0  0  0
   19.3065   -6.3946   -6.4285 C   0  0  0  0  0  0  0  0  0  0  0  0
   18.7020   -7.4962   -7.1493 N   0  0  0  0  0  3  0  0  0  0  0  0
   19.5305   -8.0278   -8.0592 O   0  0  0  0  0  0  0  0  0  0  0  0
   17.4505   -7.2232   -7.6550 N   0  0  0  0  0  0  0  0  0  0  0  0
   17.1020   -5.8590   -7.4082 C   0  0  0  0  0  3  0  0  0  0  0  0
   15.9291   -5.6598   -6.5096 C   0  0  1  0  0  0  0  0  0  0  0  0
   14.6997   -5.8945   -7.1245 O   0  0  0  0  0  0  0  0  0  0  0  0
   15.9901   -6.4489   -5.2257 C   0  0  2  0  0  0  0  0  0  0  0  0
   15.4221   -5.6790   -4.2124 O   0  0  0  0  0  0  0  0  0  0  0  0
   17.4159   -6.7355   -4.8066 C   0  0  1  0  0  0  0  0  0  0  0  0
   17.7548   -8.0761   -5.0999 O   0  0  0  0  0  0  0  0  0  0  0  0
  2  1  1  1
  2  3  1  0
  3  4  1  0
  4  5  1  6
  4  6  1  0
  6  7  1  0
  7  8  1  0
  8  9  1  1
  8 10  1  0
 10 11  1  1
 12 11  1  1
 12 13  1  0
 13 14  1  0
 14 15  1  0
 14 16  1  0
 16 17  1  0
 17 18  1  0
 18 19  1  6
 18 20  1  0
 20 21  1  1
 20 22  1  0
 22 23  1  6
 10  2  1  0
 22 12  1  0
M  CHG  1  14   1
M  RAD  2  14   2  17   2
M  END
>  <docking_score>  (2) 
-4.8099999999999996

$$$$

     RDKit          3D

 23 24  0  0  0  0  0  0  0  0999 V2000
   20.3119   -4.7696   -5.1152 C   0  0  0  0  0  0  0  0  0  0  0  0
   19.0953   -4.5442   -4.2791 C   0  0  1  0  0  0  0  0  0  0  0  0
   19.3397   -4.6345   -2.8030 C   0  0  0  0  0  0  0  0  0  0  0  0
   19.7459   -3.3323   -2.1773 C   0  0  2  0  0  0  0  0  0  0  0  0
   19.6119   -3.4465   -0.7909 O   0  0  0  0  0  0  0  0  0  0  0  0
   18.8065   -2.2475   -2.6445 C   0  0  0  0  0  0  0  0  0  0  0  0
   19.4925   -1.5249   -3.6370 O   0  0  0  0  0  0  0  0  0  0  0  0
   19.1522   -2.1174   -4.8618 C   0  0  1  0  0  0  0  0  0  0  0  0
   20.3508   -2.4887   -5.4997 O   0  0  0  0  0  0  0  0  0  0  0  0
   18.3007   -3.3404   -4.6817 C   0  0  1  0  0  0  0  0  0  0  0  0
   17.6000   -3.6139   -5.8987 N   0  0  0  0  0  0  0  0  0  0  0  0
   16.6974   -4.7247   -5.8352 C   0  0  1  0  0  0  0  0  0  0  0  0
   15.3297   -4.2436   -5.4918 C   0  0  0  0  0  0  0  0  0  0  0  0
   14.2849   -5.1542   -5.9135 N   0  0  0  0  0  3  0  0  0  0  0  0
   13.0608   -4.7110   -5.5939 O   0  0  0  0  0  0  0  0  0  0  0  0
   14.4951   -6.4653   -5.5488 N   0  0  0  0  0  0  0  0  0  0  0  0
   15.6756   -6.5754   -4.7502 C   0  0  0  0  0  3  0  0  0  0  0  0
   16.7740   -7.3819   -5.3551 C   0  0  1  0  0  0  0  0  0  0  0  0
   16.5653   -8.7592   -5.2908 O   0  0  0  0  0  0  0  0  0  0  0  0
   17.1093   -7.0059   -6.7767 C   0  0  2  0  0  0  0  0  0  0  0  0
   18.4846   -7.1460   -6.9528 O   0  0  0  0  0  0  0  0  0  0  0  0
   16.7785   -5.5586   -7.0707 C   0  0  1  0  0  0  0  0  0  0  0  0
   15.5848   -5.4697   -7.8225 O   0  0  0  0  0  0  0  0  0  0  0  0
  2  1  1  6
  2  3  1  0
  3  4  1  0
  4  5  1  1
  4  6  1  0
  6  7  1  0
  7  8  1  0
  8  9  1  1
  8 10  1  0
 10 11  1  6
 12 11  1  6
 12 13  1  0
 13 14  1  0
 14 15  1  0
 14 16  1  0
 16 17  1  0
 17 18  1  0
 18 19  1  6
 18 20  1  0
 20 21  1  1
 20 22  1  0
 22 23  1  1
 10  2  1  0
 22 12  1  0
M  CHG  1  14   1
M  RAD  2  14   2  17   2
M  END
>  <docking_score>  (3) 
-4.556

$$$$
