
     RDKit          3D

 25 26  0  0  0  0  0  0  0  0999 V2000
    7.0662   13.2540    2.2102 C   0  0  0  0  0  0  0  0  0  0  0  0
    7.6340   12.9397    3.5716 C   0  0  1  0  0  0  0  0  0  0  0  0
    9.1281   13.1686    3.4955 C   0  0  0  0  0  0  0  0  0  0  0  0
    9.3638   14.6216    3.1425 C   0  0  2  0  0  0  0  0  0  0  0  0
   10.7404   14.8603    3.0833 O   0  0  0  0  0  0  0  0  0  0  0  0
    8.7870   15.5625    4.1599 C   0  0  2  0  0  0  0  0  0  0  0  0
    9.3828   15.3678    5.4198 O   0  0  0  0  0  0  0  0  0  0  0  0
    7.3291   15.2681    4.3112 C   0  0  1  0  0  0  0  0  0  0  0  0
    6.5492   15.5921    3.2279 O   0  0  0  0  0  0  0  0  0  0  0  0
    7.0835   13.8035    4.6572 C   0  0  1  0  0  0  0  0  0  0  0  0
    5.6851   13.6724    4.9032 N   0  0  0  0  0  0  0  0  0  0  0  0
    5.2984   12.6921    5.8621 C   0  0  0  0  0  3  0  0  0  0  0  0
    5.3452   11.3317    5.2018 C   0  0  0  0  0  0  0  0  0  0  0  0
    3.9120   10.8492    5.0860 C   0  0  1  0  0  0  0  0  0  0  0  0
    2.9864   11.7023    5.6321 O   0  0  0  0  0  0  0  0  0  0  0  0
    3.5851   10.6099    3.7322 O   0  0  0  0  0  0  0  0  0  0  0  0
    2.6838    9.5479    3.7306 C   0  0  0  0  0  3  0  0  0  0  0  0
    3.2021    8.3773    2.9184 C   0  0  0  0  0  0  0  0  0  0  0  0
    3.2579    7.1935    3.6409 O   0  0  0  0  0  0  0  0  0  0  0  0
    4.1809    7.2501    4.6882 C   0  0  1  0  0  0  0  0  0  0  0  0
    5.2491    6.3535    4.4398 O   0  0  0  0  0  0  0  0  0  0  0  0
    4.7892    8.6129    4.8381 C   0  0  2  0  0  0  0  0  0  0  0  0
    6.1135    8.6140    5.2381 O   0  0  0  0  0  0  0  0  0  0  0  0
    3.9041    9.4689    5.7464 C   0  0  1  0  0  0  0  0  0  0  0  0
    4.4506    9.5500    7.0373 O   0  0  0  0  0  0  0  0  0  0  0  0
  2  1  1  6
  2  3  1  0
  3  4  1  0
  4  5  1  1
  4  6  1  0
  6  7  1  1
  6  8  1  0
  8  9  1  6
  8 10  1  0
 10 11  1  6
 11 12  1  0
 12 13  1  0
 13 14  1  0
 14 15  1  1
 14 16  1  0
 16 17  1  0
 17 18  1  0
 18 19  1  0
 19 20  1  0
 20 21  1  6
 20 22  1  0
 22 23  1  1
 22 24  1  0
 24 25  1  1
 10  2  1  0
 24 14  1  0
M  RAD  2  12   2  17   2
M  END
>  <docking_score>  (1) 
-4.3799999999999999

$$$$

     RDKit          3D

 25 26  0  0  0  0  0  0  0  0999 V2000
    4.6866   13.4481    2.7636 C   0  0  0  0  0  0  0  0  0  0  0  0
    5.7051   12.3615    2.5254 C   0  0  1  0  0  0  0  0  0  0  0  0
    6.8310   12.9741    1.7208 C   0  0  0  0  0  0  0  0  0  0  0  0
    7.4330   14.0992    2.5352 C   0  0  2  0  0  0  0  0  0  0  0  0
    8.4884   14.6698    1.8169 O   0  0  0  0  0  0  0  0  0  0  0  0
    7.9854   13.6278    3.8489 C   0  0  2  0  0  0  0  0  0  0  0  0
    9.0197   12.6938    3.6535 O   0  0  0  0  0  0  0  0  0  0  0  0
    6.8983   12.9308    4.6023 C   0  0  1  0  0  0  0  0  0  0  0  0
    5.8851   13.7405    5.0545 O   0  0  0  0  0  0  0  0  0  0  0  0
    6.2805   11.8022    3.7839 C   0  0  1  0  0  0  0  0  0  0  0  0
    5.3586   11.1344    4.6425 N   0  0  0  0  0  0  0  0  0  0  0  0
    4.7024    9.9907    4.1027 C   0  0  0  0  0  3  0  0  0  0  0  0
    5.1106    8.7785    4.9107 C   0  0  0  0  0  0  0  0  0  0  0  0
    4.4028    7.5840    4.3003 C   0  0  1  0  0  0  0  0  0  0  0  0
    4.3068    7.6270    2.9322 O   0  0  0  0  0  0  0  0  0  0  0  0
    5.0453    6.3860    4.6860 O   0  0  0  0  0  0  0  0  0  0  0  0
    4.0460    5.4201    4.7789 C   0  0  0  0  0  3  0  0  0  0  0  0
    3.9768    4.8207    6.1697 C   0  0  0  0  0  0  0  0  0  0  0  0
    2.7200    4.9282    6.7489 O   0  0  0  0  0  0  0  0  0  0  0  0
    2.3538    6.2553    6.9873 C   0  0  1  0  0  0  0  0  0  0  0  0
    2.2671    6.4895    8.3817 O   0  0  0  0  0  0  0  0  0  0  0  0
    3.3597    7.2291    6.4492 C   0  0  2  0  0  0  0  0  0  0  0  0
    3.5202    8.3736    7.2095 O   0  0  0  0  0  0  0  0  0  0  0  0
    3.0358    7.5403    4.9865 C   0  0  1  0  0  0  0  0  0  0  0  0
    2.4009    8.7877    4.8742 O   0  0  0  0  0  0  0  0  0  0  0  0
  2  1  1  1
  2  3  1  0
  3  4  1  0
  4  5  1  6
  4  6  1  0
  6  7  1  6
  6  8  1  0
  8  9  1  6
  8 10  1  0
 10 11  1  1
 11 12  1  0
 12 13  1  0
 13 14  1  0
 14 15  1  6
 14 16  1  0
 16 17  1  0
 17 18  1  0
 18 19  1  0
 19 20  1  0
 20 21  1  1
 20 22  1  0
 22 23  1  1
 22 24  1  0
 24 25  1  1
 10  2  1  0
 24 14  1  0
M  RAD  2  12   2  17   2
M  END
>  <docking_score>  (2) 
-4.2859999999999996

$$$$

     RDKit          3D

 25 26  0  0  0  0  0  0  0  0999 V2000
   16.5921   -6.6094   -4.8577 C   0  0  0  0  0  0  0  0  0  0  0  0
   18.0396   -7.0101   -4.9957 C   0  0  1  0  0  0  0  0  0  0  0  0
   18.0805   -8.5221   -5.0505 C   0  0  0  0  0  0  0  0  0  0  0  0
   17.2860   -8.9705   -6.2585 C   0  0  2  0  0  0  0  0  0  0  0  0
   17.3243  -10.3660   -6.3387 O   0  0  0  0  0  0  0  0  0  0  0  0
   17.8393   -8.4301   -7.5449 C   0  0  2  0  0  0  0  0  0  0  0  0
   19.1549   -8.8827   -7.7560 O   0  0  0  0  0  0  0  0  0  0  0  0
   17.8953   -6.9390   -7.4524 C   0  0  1  0  0  0  0  0  0  0  0  0
   16.6768   -6.3052   -7.4403 O   0  0  0  0  0  0  0  0  0  0  0  0
   18.6860   -6.4800   -6.2321 C   0  0  1  0  0  0  0  0  0  0  0  0
   18.7822   -5.0601   -6.3200 N   0  0  0  0  0  0  0  0  0  0  0  0
   20.0783   -4.4987   -6.1325 C   0  0  0  0  0  3  0  0  0  0  0  0
   20.2214   -4.0983   -4.6806 C   0  0  0  0  0  0  0  0  0  0  0  0
   19.7089   -2.6756   -4.5640 C   0  0  1  0  0  0  0  0  0  0  0  0
   20.6010   -1.7212   -4.9837 O   0  0  0  0  0  0  0  0  0  0  0  0
   18.4995   -2.5317   -5.2805 O   0  0  0  0  0  0  0  0  0  0  0  0
   17.7423   -1.5934   -4.5831 C   0  0  0  0  0  3  0  0  0  0  0  0
   16.4111   -2.1683   -4.1405 C   0  0  0  0  0  0  0  0  0  0  0  0
   16.2015   -2.0695   -2.7719 O   0  0  0  0  0  0  0  0  0  0  0  0
   17.1074   -2.8379   -2.0362 C   0  0  1  0  0  0  0  0  0  0  0  0
   16.4249   -3.8895   -1.3768 O   0  0  0  0  0  0  0  0  0  0  0  0
   18.1481   -3.4788   -2.9056 C   0  0  2  0  0  0  0  0  0  0  0  0
   18.5576   -4.7325   -2.4881 O   0  0  0  0  0  0  0  0  0  0  0  0
   19.3205   -2.5138   -3.0928 C   0  0  1  0  0  0  0  0  0  0  0  0
   20.3975   -2.8767   -2.2680 O   0  0  0  0  0  0  0  0  0  0  0  0
  2  1  1  6
  2  3  1  0
  3  4  1  0
  4  5  1  6
  4  6  1  0
  6  7  1  1
  6  8  1  0
  8  9  1  1
  8 10  1  0
 10 11  1  1
 11 12  1  0
 12 13  1  0
 13 14  1  0
 14 15  1  6
 14 16  1  0
 16 17  1  0
 17 18  1  0
 18 19  1  0
 19 20  1  0
 20 21  1  6
 20 22  1  0
 22 23  1  1
 22 24  1  0
 24 25  1  1
 10  2  1  0
 24 14  1  0
M  RAD  2  12   2  17   2
M  END
>  <docking_score>  (3) 
-3.9809999999999999

$$$$
