
     RDKit          3D

 74 75  0  0  0  0  0  0  0  0999 V2000
    6.8899  -11.8254    0.4735 C   0  0  0  0  0  0  0  0  0  0  0  0
    6.1548  -10.7951   -0.3315 C   0  0  0  0  0  0  0  0  0  0  0  0
    6.3438  -10.7299   -1.8181 C   0  0  0  0  0  0  0  0  0  0  0  0
    5.2308   -9.8299    0.3502 C   0  0  0  0  0  0  0  0  0  0  0  0
    4.4434   -8.8446   -0.4618 C   0  0  0  0  0  0  0  0  0  0  0  0
    4.7460   -7.3789   -0.3620 C   0  0  0  0  0  0  0  0  0  0  0  0
    4.5133   -6.6513    0.9289 C   0  0  0  0  0  0  0  0  0  0  0  0
    5.4993   -6.7820    2.0518 C   0  0  0  0  0  0  0  0  0  0  0  0
    3.2948   -5.7930    1.0970 C   0  0  0  0  0  3  0  0  0  0  0  0
    3.4402   -4.3531    1.4919 C   0  0  0  0  0  0  0  0  0  0  0  0
    4.5780   -3.5385    0.9517 C   0  0  0  0  0  0  0  0  0  0  0  0
    5.7425   -3.1990    1.8341 C   0  0  0  0  0  0  0  0  0  0  0  0
    7.0765   -2.8814    1.2263 C   0  0  0  0  0  0  0  0  0  0  0  0
    5.5729   -3.1772    3.3243 C   0  0  0  0  0  3  0  0  0  0  0  0
    5.3176   -1.8791    4.0312 C   0  0  0  0  0  0  0  0  0  0  0  0
    6.3984   -0.8417    4.1078 C   0  0  0  0  0  0  0  0  0  0  0  0
    7.8084   -1.1992    3.7420 N   0  0  0  0  0  1  0  0  0  0  0  0
    6.0689    0.5532    4.5502 C   0  0  0  0  0  0  0  0  0  0  0  0
    7.0221    1.3056    5.4308 C   0  0  0  0  0  0  0  0  0  0  0  0
    8.1530    0.5835    6.1013 C   0  0  0  0  0  0  0  0  0  0  0  0
    8.8469    0.4424    4.7788 O   0  0  0  0  0  0  0  0  0  0  0  0
    9.2840   -0.1385    6.7717 C   0  0  0  0  0  0  0  0  0  0  0  0
    8.5902    0.0026    8.0941 C   0  0  0  0  0  0  0  0  0  0  0  0
    8.8993   -0.4082    9.5032 C   0  0  0  0  0  0  0  0  0  0  0  0
    7.4592    0.7247    7.4237 C   0  0  0  0  0  0  0  0  0  0  0  0
    6.1689    1.3350    7.8846 C   0  0  0  0  0  0  0  0  0  0  0  0
    5.6107    2.5335    7.1759 C   0  0  0  0  0  0  0  0  0  0  0  0
    5.9796    2.7986    5.7464 N   0  0  0  0  0  3  0  0  0  0  0  0
    5.4215    3.9971    5.0376 C   0  0  0  0  0  0  0  0  0  0  0  0
    4.4231    4.8787    5.7274 C   0  0  0  0  0  0  0  0  0  0  0  0
    3.8650    6.0771    5.0188 C   0  0  0  0  0  0  0  0  0  0  0  0
    3.1434    7.1386    5.7949 C   0  0  0  0  0  0  0  0  0  0  0  0
    4.0285    6.2141    3.5340 C   0  0  0  0  0  0  0  0  0  0  0  0
    2.8394    6.5243    2.6740 C   0  0  0  0  0  0  0  0  0  0  0  0
    5.3813    6.0407    2.9093 C   0  0  0  0  0  0  0  0  0  0  0  0
    6.5206    5.5044    3.7243 C   0  0  0  0  0  0  0  0  0  0  0  0
    6.6158    5.8296    5.1855 C   0  0  0  0  0  0  0  0  0  0  0  0
    7.8231    5.4093    5.9702 C   0  0  0  0  0  0  0  0  0  0  0  0
    7.6740    4.4703    7.1304 C   0  0  0  0  0  0  0  0  0  0  0  0
    9.1795    5.9281    5.5948 C   0  0  0  0  0  0  0  0  0  0  0  0
    9.5280    7.3656    5.8436 C   0  0  0  0  0  0  0  0  0  0  0  0
    8.5193    8.4407    5.5662 C   0  0  0  0  0  0  0  0  0  0  0  0
    7.6718    8.6086    6.7924 C   0  0  0  0  0  0  0  0  0  0  0  0
    8.1567    7.6374    7.8276 C   0  0  0  0  0  0  0  0  0  0  0  0
    9.3369    7.9834    8.6862 C   0  0  0  0  0  0  0  0  0  0  0  0
   10.3662    8.9553    8.1900 C   0  0  0  0  0  0  0  0  0  0  0  0
   11.8025    8.5364    8.0818 C   0  0  0  0  0  1  0  0  0  0  0  0
    8.7434    8.9371    4.1686 C   0  0  0  0  0  0  0  0  0  0  0  0
    9.8905    8.1689    3.5822 C   0  0  0  0  0  0  0  0  0  0  0  0
    8.2585    9.9083    3.1334 C   0  0  0  0  0  0  0  0  0  0  0  0
    7.2498   10.9833    2.8561 C   0  0  0  0  0  0  0  0  0  0  0  0
    6.1026   11.7516    3.4424 C   0  0  0  0  0  0  0  0  0  0  0  0
    5.2552   11.9195    4.6687 C   0  0  0  0  0  0  0  0  0  0  0  0
    5.0310   11.4231    6.0663 C   0  0  0  0  0  3  0  0  0  0  0  0
    3.8839   12.1913    6.6527 C   0  0  0  0  0  2  0  0  0  0  0  0
    5.5159   10.4519    7.1015 C   0  0  0  0  0  0  0  0  0  0  0  0
    6.5246    9.3769    7.3788 C   0  0  0  0  0  3  0  0  0  0  0  0
    6.3005    8.8804    8.7765 C   0  0  0  0  0  0  0  0  0  0  0  0
    5.4656    9.6806    9.7318 C   0  0  0  0  0  0  0  0  0  0  0  0
    5.2242    9.1739   11.1228 C   0  0  0  0  0  0  0  0  0  0  0  0
    5.0307   10.1433   12.2510 C   0  0  0  0  0  0  0  0  0  0  0  0
    5.7903   11.1859   11.4856 C   0  0  0  0  0  0  0  0  0  0  0  0
    4.2710    9.1007   13.0165 C   0  0  0  0  0  0  0  0  0  0  0  0
    4.8371   11.1126   13.3793 C   0  0  0  0  0  0  0  0  0  0  0  0
    3.5577   11.1062   14.1624 C   0  0  0  0  0  0  0  0  0  0  0  0
    2.3633   10.3634   13.6415 C   0  0  0  0  0  2  0  0  0  0  0  0
    3.4729   11.8427   15.4664 C   0  0  0  0  0  0  0  0  0  0  0  0
    2.2820   11.6532   16.3587 S   0  0  0  0  0  0  0  0  0  0  0  0
    4.5788   12.7685   15.8781 C   0  0  0  0  0  0  0  0  0  0  0  0
    5.4531   13.4022   14.8369 C   0  0  0  0  0  0  0  0  0  0  0  0
    6.3275   14.0360   13.7958 C   0  0  0  0  0  0  0  0  0  0  0  0
    7.2018   14.6698   12.7547 C   0  0  0  0  0  0  0  0  0  0  0  0
    8.3077   15.5956   13.1665 C   0  0  0  0  0  0  0  0  0  0  0  0
    8.6710   15.7324   14.6154 C   0  0  0  0  0  0  0  0  0  0  0  0
  1  2  1  0
  2  3  1  0
  2  4  1  0
  4  5  1  0
  5  6  1  0
  6  7  1  0
  7  8  1  0
  7  9  1  0
  9 10  1  0
 10 11  1  0
 11 12  1  0
 12 13  1  0
 12 14  1  0
 14 15  1  0
 15 16  1  0
 16 17  1  0
 16 18  1  0
 18 19  1  0
 19 20  1  0
 20 21  1  0
 20 22  1  0
 22 23  1  0
 23 24  1  0
 23 25  1  0
 25 26  1  0
 26 27  1  0
 27 28  2  3
 28 29  1  0
 29 30  2  3
 30 31  1  0
 31 32  1  0
 31 33  1  0
 33 34  1  0
 33 35  1  0
 35 36  1  0
 36 37  1  0
 37 38  1  0
 38 39  1  0
 38 40  1  0
 40 41  1  0
 41 42  1  0
 42 43  1  0
 43 44  1  0
 44 45  1  0
 45 46  1  0
 46 47  1  0
 42 48  1  0
 48 49  1  0
 48 50  1  0
 50 51  1  0
 51 52  1  0
 52 53  1  0
 53 54  1  0
 54 55  1  0
 54 56  1  0
 56 57  1  0
 57 58  1  0
 58 59  1  0
 59 60  1  0
 60 61  1  0
 61 62  1  0
 61 63  1  0
 61 64  1  0
 64 65  1  0
 65 66  1  0
 65 67  1  0
 67 68  1  0
 67 69  1  0
 69 70  1  0
 70 71  3  0
 71 72  1  0
 72 73  1  0
 73 74  1  0
 25 20  1  0
 57 43  1  0
M  RAD  8   9   2  14   2  17   2  28   2  47   2  54   2  55   3  57   2
M  CHG  2  17   1  28   1
M  RAD  1  66   3
M  END
>  <docking_score>  (1) 
108.122

$$$$

     RDKit          3D

 74 75  0  0  0  0  0  0  0  0999 V2000
   15.1239    3.8757   -3.7133 C   0  0  0  0  0  0  0  0  0  0  0  0
   15.5662    5.3076   -3.7771 C   0  0  0  0  0  0  0  0  0  0  0  0
   16.8828    5.6585   -4.4043 C   0  0  0  0  0  0  0  0  0  0  0  0
   14.6919    6.3885   -3.2137 C   0  0  0  0  0  0  0  0  0  0  0  0
   13.3080    6.0612   -2.7367 C   0  0  0  0  0  0  0  0  0  0  0  0
   12.7779    6.6921   -1.4834 C   0  0  0  0  0  0  0  0  0  0  0  0
   12.9316    5.9895   -0.1671 C   0  0  0  0  0  0  0  0  0  0  0  0
   11.9922    4.8810    0.2055 C   0  0  0  0  0  0  0  0  0  0  0  0
   14.0246    6.3953    0.7766 C   0  0  0  0  0  3  0  0  0  0  0  0
   14.9849    7.4807    0.3897 C   0  0  0  0  0  0  0  0  0  0  0  0
   14.4679    8.7894   -0.1299 C   0  0  0  0  0  0  0  0  0  0  0  0
   15.4144    9.7810   -0.7392 C   0  0  0  0  0  0  0  0  0  0  0  0
   16.2984    9.3711   -1.8795 C   0  0  0  0  0  0  0  0  0  0  0  0
   15.4766   11.1824   -0.2080 C   0  0  0  0  0  3  0  0  0  0  0  0
   16.1959   12.2468   -0.9824 C   0  0  0  0  0  0  0  0  0  0  0  0
   17.5860   11.9968   -1.4876 C   0  0  0  0  0  0  0  0  0  0  0  0
   17.8207   11.7558   -2.9494 N   0  0  0  0  0  1  0  0  0  0  0  0
   18.7413   11.9878   -0.5310 C   0  0  0  0  0  0  0  0  0  0  0  0
   19.8491   10.9911   -0.7023 C   0  0  0  0  0  0  0  0  0  0  0  0
   19.8634    9.7368    0.1200 C   0  0  0  0  0  0  0  0  0  0  0  0
   20.2787   10.5303    1.3233 O   0  0  0  0  0  0  0  0  0  0  0  0
   19.8777    8.4824    0.9424 C   0  0  0  0  0  0  0  0  0  0  0  0
   19.4624    7.6888   -0.2609 C   0  0  0  0  0  0  0  0  0  0  0  0
   19.1789    6.2406   -0.5302 C   0  0  0  0  0  0  0  0  0  0  0  0
   19.4482    8.9432   -1.0832 C   0  0  0  0  0  0  0  0  0  0  0  0
   19.1444    9.2690   -2.5156 C   0  0  0  0  0  0  0  0  0  0  0  0
   19.2443    8.2018   -3.5650 C   0  0  0  0  0  0  0  0  0  0  0  0
   20.3647    7.2056   -3.5172 N   0  0  0  0  0  3  0  0  0  0  0  0
   20.4645    6.1384   -4.5666 C   0  0  0  0  0  0  0  0  0  0  0  0
   19.2252    5.4501   -5.0566 C   0  0  0  0  0  0  0  0  0  0  0  0
   19.3250    4.3829   -6.1059 C   0  0  0  0  0  0  0  0  0  0  0  0
   19.5229    4.7612   -7.5438 C   0  0  0  0  0  0  0  0  0  0  0  0
   19.2269    2.9374   -5.7173 C   0  0  0  0  0  0  0  0  0  0  0  0
   19.8622    2.4578   -4.4460 C   0  0  0  0  0  0  0  0  0  0  0  0
   18.4935    1.9716   -6.6002 C   0  0  0  0  0  0  0  0  0  0  0  0
   17.6576    0.8850   -5.9914 C   0  0  0  0  0  0  0  0  0  0  0  0
   18.2506   -0.0288   -4.9602 C   0  0  0  0  0  0  0  0  0  0  0  0
   17.5139   -0.2942   -3.6809 C   0  0  0  0  0  0  0  0  0  0  0  0
   16.0141   -0.2789   -3.6620 C   0  0  0  0  0  0  0  0  0  0  0  0
   18.2770   -0.5749   -2.4204 C   0  0  0  0  0  0  0  0  0  0  0  0
   17.5412   -0.9117   -1.1574 C   0  0  0  0  0  0  0  0  0  0  0  0
   16.0601   -0.6902   -1.0705 C   0  0  0  0  0  0  0  0  0  0  0  0
   15.4109   -1.4555   -2.1854 C   0  0  0  0  0  0  0  0  0  0  0  0
   16.4906   -2.1498   -2.9613 C   0  0  0  0  0  0  0  0  0  0  0  0
   16.2445   -3.5150   -3.5320 C   0  0  0  0  0  0  0  0  0  0  0  0
   17.3813   -4.2994   -4.1171 C   0  0  0  0  0  0  0  0  0  0  0  0
   17.8421   -5.5622   -3.4513 C   0  0  0  0  0  1  0  0  0  0  0  0
   15.7941    0.2119    0.0980 C   0  0  0  0  0  0  0  0  0  0  0  0
   17.1107    0.5479    0.7333 C   0  0  0  0  0  0  0  0  0  0  0  0
   14.7144    0.9062    0.8739 C   0  0  0  0  0  0  0  0  0  0  0  0
   13.2334    1.1277    0.9608 C   0  0  0  0  0  0  0  0  0  0  0  0
   11.9167    0.7916    0.3255 C   0  0  0  0  0  0  0  0  0  0  0  0
   11.2675    0.0263   -0.7894 C   0  0  0  0  0  0  0  0  0  0  0  0
   11.5335   -0.8757   -1.9579 C   0  0  0  0  0  3  0  0  0  0  0  0
   10.2169   -1.2118   -2.5932 C   0  0  0  0  0  2  0  0  0  0  0  0
   12.6132   -1.5701   -2.7338 C   0  0  0  0  0  0  0  0  0  0  0  0
   14.0942   -1.7915   -2.8207 C   0  0  0  0  0  3  0  0  0  0  0  0
   14.3603   -2.6936   -3.9893 C   0  0  0  0  0  0  0  0  0  0  0  0
   15.7400   -3.2351   -4.2199 C   0  0  0  0  0  0  0  0  0  0  0  0
   16.4349   -2.9858   -5.5256 C   0  0  0  0  0  0  0  0  0  0  0  0
   15.7557   -3.3375   -6.8159 C   0  0  0  0  0  0  0  0  0  0  0  0
   17.0928   -3.5475   -7.4625 C   0  0  0  0  0  0  0  0  0  0  0  0
   14.4187   -3.1275   -6.1693 C   0  0  0  0  0  0  0  0  0  0  0  0
   15.0766   -3.6892   -8.1062 C   0  0  0  0  0  0  0  0  0  0  0  0
   13.7557   -4.3999   -8.0891 C   0  0  0  0  0  0  0  0  0  0  0  0
   12.5072   -3.6718   -8.4903 C   0  0  0  0  0  2  0  0  0  0  0  0
   13.6834   -5.8385   -7.6707 C   0  0  0  0  0  0  0  0  0  0  0  0
   14.7897   -6.7828   -8.0376 S   0  0  0  0  0  0  0  0  0  0  0  0
   12.5049   -6.3329   -6.8856 C   0  0  0  0  0  0  0  0  0  0  0  0
   11.5526   -7.3152   -7.5007 C   0  0  0  0  0  0  0  0  0  0  0  0
   10.6002   -8.2975   -8.1157 C   0  0  0  0  0  0  0  0  0  0  0  0
    9.6480   -9.2798   -8.7308 C   0  0  0  0  0  0  0  0  0  0  0  0
    8.4695   -9.7742   -7.9457 C   0  0  0  0  0  0  0  0  0  0  0  0
    8.6546  -10.8388   -6.9054 C   0  0  0  0  0  0  0  0  0  0  0  0
  1  2  1  0
  2  3  1  0
  2  4  1  0
  4  5  1  0
  5  6  1  0
  6  7  1  0
  7  8  1  0
  7  9  1  0
  9 10  1  0
 10 11  1  0
 11 12  1  0
 12 13  1  0
 12 14  1  0
 14 15  1  0
 15 16  1  0
 16 17  1  0
 16 18  1  0
 18 19  1  0
 19 20  1  0
 20 21  1  0
 20 22  1  0
 22 23  1  0
 23 24  1  0
 23 25  1  0
 25 26  1  0
 26 27  1  0
 27 28  2  3
 28 29  1  0
 29 30  2  3
 30 31  1  0
 31 32  1  0
 31 33  1  0
 33 34  1  0
 33 35  1  0
 35 36  1  0
 36 37  1  0
 37 38  1  0
 38 39  1  0
 38 40  1  0
 40 41  1  0
 41 42  1  0
 42 43  1  0
 43 44  1  0
 44 45  1  0
 45 46  1  0
 46 47  1  0
 42 48  1  0
 48 49  1  0
 48 50  1  0
 50 51  1  0
 51 52  1  0
 52 53  1  0
 53 54  1  0
 54 55  1  0
 54 56  1  0
 56 57  1  0
 57 58  1  0
 58 59  1  0
 59 60  1  0
 60 61  1  0
 61 62  1  0
 61 63  1  0
 61 64  1  0
 64 65  1  0
 65 66  1  0
 65 67  1  0
 67 68  1  0
 67 69  1  0
 69 70  1  0
 70 71  3  0
 71 72  1  0
 72 73  1  0
 73 74  1  0
 25 20  1  0
 57 43  1  0
M  RAD  8   9   2  14   2  17   2  28   2  47   2  54   2  55   3  57   2
M  CHG  2  17   1  28   1
M  RAD  1  66   3
M  END
>  <docking_score>  (2) 
108.88800000000001

$$$$
