
     RDKit          3D

 23 26  0  0  0  0  0  0  0  0999 V2000
   16.1556   -4.3852   -2.9264 C   0  0  0  0  0  0  0  0  0  0  0  0
   16.3194   -5.4458   -3.7984 O   0  0  0  0  0  0  0  0  0  0  0  0
   17.3775   -6.2504   -4.0501 C   0  0  0  0  0  0  0  0  0  0  0  0
   17.1543   -7.1795   -5.0724 C   0  0  0  0  0  0  0  0  0  0  0  0
   18.0948   -8.0811   -5.4764 C   0  0  0  0  0  0  0  0  0  0  0  0
   19.3286   -8.1081   -4.8776 C   0  0  0  0  0  0  0  0  0  0  0  0
   19.5565   -7.1971   -3.8733 C   0  0  0  0  0  0  0  0  0  0  0  0
   18.6125   -6.2634   -3.4391 C   0  0  0  0  0  0  0  0  0  0  0  0
   18.9359   -5.3706   -2.3967 O   0  0  0  0  0  0  0  0  0  0  0  0
   19.1246   -4.0233   -2.5162 C   0  0  2  0  0  0  0  0  0  0  0  0
   20.3889   -3.4212   -2.6176 N   0  0  0  0  0  0  0  0  0  0  0  0
   19.8582   -2.2834   -1.8575 C   0  0  1  0  0  0  0  0  0  0  0  0
   19.5120   -1.0743   -2.6579 C   0  0  0  0  0  0  0  0  0  0  0  0
   18.5833   -3.0909   -1.5225 C   0  0  1  0  0  0  0  0  0  0  0  0
   17.3454   -2.4351   -2.1078 C   0  0  0  0  0  0  0  0  0  0  0  0
   16.8663   -3.1256   -3.3463 C   0  0  1  0  0  0  0  0  0  0  0  0
   17.9087   -3.4154   -4.2624 O   0  0  0  0  0  0  0  0  0  0  0  0
   16.0012   -2.1859   -4.0997 C   0  0  0  0  0  0  0  0  0  0  0  0
   16.1054   -2.0683   -5.4642 C   0  0  0  0  0  0  0  0  0  0  0  0
   15.2996   -1.1766   -6.1732 C   0  0  0  0  0  0  0  0  0  0  0  0
   14.4300   -0.4368   -5.4683 C   0  0  0  0  0  0  0  0  0  0  0  0
   14.2803   -0.4934   -4.1344 C   0  0  0  0  0  0  0  0  0  0  0  0
   15.0943   -1.3987   -3.4364 C   0  0  0  0  0  0  0  0  0  0  0  0
  1  2  1  0
  2  3  1  0
  3  4  2  0
  4  5  1  0
  5  6  2  0
  6  7  1  0
  7  8  2  0
  8  9  1  0
  9 10  1  0
 10 11  1  1
 11 12  1  0
 12 13  1  6
 12 14  1  0
 14 15  1  6
 15 16  1  0
 16 17  1  6
 16 18  1  0
 18 19  2  0
 19 20  1  0
 20 21  2  0
 21 22  1  0
 22 23  2  0
 16  1  1  0
  8  3  1  0
 14 10  1  0
 23 18  1  0
M  END
>  <docking_score>  (1) 
-6.7549999999999999

$$$$

     RDKit          3D

 23 26  0  0  0  0  0  0  0  0999 V2000
   16.1355   -4.2805   -2.9875 C   0  0  0  0  0  0  0  0  0  0  0  0
   16.1292   -5.3622   -3.8488 O   0  0  0  0  0  0  0  0  0  0  0  0
   17.0724   -6.2870   -4.1411 C   0  0  0  0  0  0  0  0  0  0  0  0
   16.6894   -7.1948   -5.1347 C   0  0  0  0  0  0  0  0  0  0  0  0
   17.4967   -8.2039   -5.5714 C   0  0  0  0  0  0  0  0  0  0  0  0
   18.7492   -8.3676   -5.0367 C   0  0  0  0  0  0  0  0  0  0  0  0
   19.1339   -7.4784   -4.0612 C   0  0  0  0  0  0  0  0  0  0  0  0
   18.3285   -6.4367   -3.5946 C   0  0  0  0  0  0  0  0  0  0  0  0
   18.8077   -5.5763   -2.5855 O   0  0  0  0  0  0  0  0  0  0  0  0
   19.1441   -4.2615   -2.7374 C   0  0  2  0  0  0  0  0  0  0  0  0
   20.4622   -3.8113   -2.9141 N   0  0  0  0  0  0  0  0  0  0  0  0
   20.1076   -2.6114   -2.1470 C   0  0  1  0  0  0  0  0  0  0  0  0
   19.8611   -1.3791   -2.9487 C   0  0  0  0  0  0  0  0  0  0  0  0
   18.7676   -3.2617   -1.7330 C   0  0  1  0  0  0  0  0  0  0  0  0
   17.5843   -2.4730   -2.2646 C   0  0  0  0  0  0  0  0  0  0  0  0
   16.9635   -3.1166   -3.4648 C   0  0  1  0  0  0  0  0  0  0  0  0
   17.9152   -3.5353   -4.4285 O   0  0  0  0  0  0  0  0  0  0  0  0
   16.1737   -2.0910   -4.1884 C   0  0  0  0  0  0  0  0  0  0  0  0
   15.0029   -1.6003   -3.6641 C   0  0  0  0  0  0  0  0  0  0  0  0
   14.2531   -0.6432   -4.3488 C   0  0  0  0  0  0  0  0  0  0  0  0
   14.7173   -0.2317   -5.5386 C   0  0  0  0  0  0  0  0  0  0  0  0
   15.8477   -0.6733   -6.1148 C   0  0  0  0  0  0  0  0  0  0  0  0
   16.5931   -1.6318   -5.4112 C   0  0  0  0  0  0  0  0  0  0  0  0
  1  2  1  0
  2  3  1  0
  3  4  2  0
  4  5  1  0
  5  6  2  0
  6  7  1  0
  7  8  2  0
  8  9  1  0
  9 10  1  0
 10 11  1  1
 11 12  1  0
 12 13  1  6
 12 14  1  0
 14 15  1  6
 15 16  1  0
 16 17  1  6
 16 18  1  0
 18 19  2  0
 19 20  1  0
 20 21  2  0
 21 22  1  0
 22 23  2  0
 16  1  1  0
  8  3  1  0
 14 10  1  0
 23 18  1  0
M  END
>  <docking_score>  (2) 
-6.601

$$$$

     RDKit          3D

 23 26  0  0  0  0  0  0  0  0999 V2000
   17.0487   -4.8949   -2.3811 C   0  0  0  0  0  0  0  0  0  0  0  0
   18.2433   -4.4890   -1.8153 O   0  0  0  0  0  0  0  0  0  0  0  0
   18.8404   -3.2772   -1.7429 C   0  0  0  0  0  0  0  0  0  0  0  0
   20.0994   -3.2997   -1.1326 C   0  0  0  0  0  0  0  0  0  0  0  0
   20.8631   -2.1825   -0.9617 C   0  0  0  0  0  0  0  0  0  0  0  0
   20.4104   -0.9626   -1.3958 C   0  0  0  0  0  0  0  0  0  0  0  0
   19.1749   -0.9323   -1.9983 C   0  0  0  0  0  0  0  0  0  0  0  0
   18.3715   -2.0596   -2.1861 C   0  0  0  0  0  0  0  0  0  0  0  0
   17.1142   -1.9297   -2.8109 O   0  0  0  0  0  0  0  0  0  0  0  0
   16.7758   -2.3939   -4.0499 C   0  0  2  0  0  0  0  0  0  0  0  0
   16.7631   -1.5937   -5.2034 N   0  0  0  0  0  0  0  0  0  0  0  0
   15.6174   -2.3774   -5.6800 C   0  0  1  0  0  0  0  0  0  0  0  0
   15.9209   -3.4038   -6.7175 C   0  0  0  0  0  0  0  0  0  0  0  0
   15.4817   -3.0401   -4.2900 C   0  0  1  0  0  0  0  0  0  0  0  0
   15.7044   -4.5398   -4.3699 C   0  0  0  0  0  0  0  0  0  0  0  0
   17.0629   -4.9407   -3.8863 C   0  0  1  0  0  0  0  0  0  0  0  0
   18.1024   -4.1290   -4.4064 O   0  0  0  0  0  0  0  0  0  0  0  0
   17.3744   -6.2844   -4.4306 C   0  0  0  0  0  0  0  0  0  0  0  0
   16.4765   -6.9492   -5.2297 C   0  0  0  0  0  0  0  0  0  0  0  0
   16.7638   -8.2183   -5.7337 C   0  0  0  0  0  0  0  0  0  0  0  0
   17.9439   -8.7622   -5.3989 C   0  0  0  0  0  0  0  0  0  0  0  0
   18.8646   -8.1744   -4.6169 C   0  0  0  0  0  0  0  0  0  0  0  0
   18.5629   -6.8962   -4.1222 C   0  0  0  0  0  0  0  0  0  0  0  0
  1  2  1  0
  2  3  1  0
  3  4  2  0
  4  5  1  0
  5  6  2  0
  6  7  1  0
  7  8  2  0
  8  9  1  0
  9 10  1  0
 10 11  1  6
 11 12  1  0
 12 13  1  6
 12 14  1  0
 14 15  1  6
 15 16  1  0
 16 17  1  6
 16 18  1  0
 18 19  2  0
 19 20  1  0
 20 21  2  0
 21 22  1  0
 22 23  2  0
 16  1  1  0
  8  3  1  0
 14 10  1  0
 23 18  1  0
M  END
>  <docking_score>  (3) 
-6.5830000000000002

$$$$
