
     RDKit          3D

 25 24  0  0  0  0  0  0  0  0999 V2000
   14.9371   -1.1701   -3.4920 C   0  0  0  0  0  0  0  0  0  0  0  0
   16.0971   -1.8851   -4.1073 C   0  0  0  0  0  3  0  0  0  0  0  0
   16.0116   -1.9201   -5.6182 C   0  0  0  0  0  0  0  0  0  0  0  0
   17.4155   -1.8741   -6.2159 C   0  0  2  0  0  0  0  0  0  0  0  0
   17.7703   -3.1917   -6.5721 O   0  0  0  0  0  0  0  0  0  0  0  0
   18.4158   -1.4125   -5.1744 C   0  0  2  0  0  0  0  0  0  0  0  0
   18.7731   -0.0869   -5.4760 O   0  0  0  0  0  0  0  0  0  0  0  0
   19.6358   -2.2904   -5.2849 C   0  0  1  0  0  0  0  0  0  0  0  0
   20.6844   -1.5845   -5.8471 O   0  0  0  0  0  0  0  0  0  0  0  0
   19.9739   -2.8645   -3.9380 C   0  0  0  0  0  3  0  0  0  0  0  0
   21.0633   -3.7988   -3.9633 N   0  0  0  0  0  0  0  0  0  0  0  0
   20.8646   -4.7904   -4.9994 C   0  0  0  0  0  3  0  0  0  0  0  0
   20.8887   -6.1597   -4.3900 C   0  0  0  0  0  0  0  0  0  0  0  0
   19.5299   -6.8014   -4.3355 C   0  0  2  0  0  0  0  0  0  0  0  0
   18.6918   -6.2278   -3.3880 O   0  0  0  0  0  0  0  0  0  0  0  0
   19.7281   -8.2757   -4.0085 C   0  0  0  0  0  0  0  0  0  0  0  0
   20.9543   -8.3463   -3.3079 O   0  0  0  0  0  0  0  0  0  0  0  0
   18.8033   -6.7462   -5.6634 C   0  0  1  0  0  0  0  0  0  0  0  0
   19.5762   -7.2511   -6.7068 O   0  0  0  0  0  0  0  0  0  0  0  0
   17.5482   -7.5754   -5.5274 C   0  0  2  0  0  0  0  0  0  0  0  0
   17.5919   -8.8369   -6.3405 C   0  0  0  0  0  0  0  0  0  0  0  0
   16.3290   -6.7817   -5.8668 C   0  0  0  0  0  3  0  0  0  0  0  0
   15.3989   -6.6598   -4.6939 C   0  0  0  0  0  3  0  0  0  0  0  0
   15.3901   -5.3228   -4.3032 O   0  0  0  0  0  0  0  0  0  0  0  0
   15.9061   -5.1447   -3.1206 O   0  0  0  0  0  0  0  0  0  0  0  0
  1  2  1  0
  2  3  1  0
  3  4  1  0
  4  5  1  1
  4  6  1  0
  6  7  1  6
  6  8  1  0
  8  9  1  1
  8 10  1  0
 10 11  1  0
 11 12  1  0
 12 13  1  0
 13 14  1  0
 14 15  1  1
 14 16  1  0
 16 17  1  0
 14 18  1  0
 18 19  1  6
 18 20  1  0
 20 21  1  6
 20 22  1  0
 22 23  1  0
 23 24  1  0
 24 25  1  0
M  RAD  5   2   2  10   2  12   2  22   2  23   2
M  END
>  <docking_score>  (1) 
-2.681

$$$$

     RDKit          3D

 25 24  0  0  0  0  0  0  0  0999 V2000
   15.6404   -9.6992   -5.0740 C   0  0  0  0  0  0  0  0  0  0  0  0
   17.0381  -10.1003   -5.4216 C   0  0  0  0  0  3  0  0  0  0  0  0
   17.6043   -9.2751   -6.5574 C   0  0  0  0  0  0  0  0  0  0  0  0
   17.8703   -7.8505   -6.0776 C   0  0  2  0  0  0  0  0  0  0  0  0
   16.9571   -7.0015   -6.7365 O   0  0  0  0  0  0  0  0  0  0  0  0
   19.2611   -7.4082   -6.4881 C   0  0  2  0  0  0  0  0  0  0  0  0
   20.1286   -8.5019   -6.3233 O   0  0  0  0  0  0  0  0  0  0  0  0
   19.6847   -6.2976   -5.5616 C   0  0  1  0  0  0  0  0  0  0  0  0
   19.3363   -5.0697   -6.0952 O   0  0  0  0  0  0  0  0  0  0  0  0
   19.1049   -6.5259   -4.1942 C   0  0  0  0  0  3  0  0  0  0  0  0
   19.7394   -5.7587   -3.1602 N   0  0  0  0  0  0  0  0  0  0  0  0
   19.7750   -4.3547   -3.5119 C   0  0  0  0  0  3  0  0  0  0  0  0
   18.6238   -3.6486   -2.8615 C   0  0  0  0  0  0  0  0  0  0  0  0
   18.6200   -2.1680   -3.1237 C   0  0  2  0  0  0  0  0  0  0  0  0
   19.8484   -1.6864   -3.5577 O   0  0  0  0  0  0  0  0  0  0  0  0
   18.2333   -1.4701   -1.8264 C   0  0  0  0  0  0  0  0  0  0  0  0
   19.4124   -0.8352   -1.3723 O   0  0  0  0  0  0  0  0  0  0  0  0
   17.5917   -1.7597   -4.1582 C   0  0  1  0  0  0  0  0  0  0  0  0
   18.0093   -2.0468   -5.4560 O   0  0  0  0  0  0  0  0  0  0  0  0
   16.3237   -2.5252   -3.8627 C   0  0  2  0  0  0  0  0  0  0  0  0
   16.0866   -3.6540   -4.8241 C   0  0  0  0  0  0  0  0  0  0  0  0
   15.1357   -1.6205   -3.8220 C   0  0  0  0  0  3  0  0  0  0  0  0
   14.2683   -1.7845   -5.0371 C   0  0  0  0  0  3  0  0  0  0  0  0
   14.5332   -0.7144   -5.8885 O   0  0  0  0  0  0  0  0  0  0  0  0
   14.5902    0.4237   -5.2576 O   0  0  0  0  0  0  0  0  0  0  0  0
  1  2  1  0
  2  3  1  0
  3  4  1  0
  4  5  1  6
  4  6  1  0
  6  7  1  1
  6  8  1  0
  8  9  1  6
  8 10  1  0
 10 11  1  0
 11 12  1  0
 12 13  1  0
 13 14  1  0
 14 15  1  6
 14 16  1  0
 16 17  1  0
 14 18  1  0
 18 19  1  6
 18 20  1  0
 20 21  1  6
 20 22  1  0
 22 23  1  0
 23 24  1  0
 24 25  1  0
M  RAD  5   2   2  10   2  12   2  22   2  23   2
M  END
>  <docking_score>  (2) 
-2.5600000000000001

$$$$

     RDKit          3D

 25 24  0  0  0  0  0  0  0  0999 V2000
   12.8868   11.9441   14.5171 C   0  0  0  0  0  0  0  0  0  0  0  0
   11.9954   13.0041   13.9538 C   0  0  0  0  0  3  0  0  0  0  0  0
   12.6318   13.7249   12.7847 C   0  0  0  0  0  0  0  0  0  0  0  0
   11.8606   15.0085   12.4879 C   0  0  2  0  0  0  0  0  0  0  0  0
   11.5719   15.6271   13.7220 O   0  0  0  0  0  0  0  0  0  0  0  0
   10.5319   14.6846   11.8336 C   0  0  2  0  0  0  0  0  0  0  0  0
   10.6899   13.4962   11.0997 O   0  0  0  0  0  0  0  0  0  0  0  0
   10.1969   15.8088   10.8875 C   0  0  1  0  0  0  0  0  0  0  0  0
   11.2691   16.0675   10.0524 O   0  0  0  0  0  0  0  0  0  0  0  0
    8.9367   15.4838   10.1363 C   0  0  0  0  0  3  0  0  0  0  0  0
    7.7567   15.4906   10.9537 N   0  0  0  0  0  0  0  0  0  0  0  0
    6.8686   14.4095   10.5812 C   0  0  0  0  0  3  0  0  0  0  0  0
    7.0272   13.2776   11.5511 C   0  0  0  0  0  0  0  0  0  0  0  0
    5.7247   12.8448   12.1654 C   0  0  2  0  0  0  0  0  0  0  0  0
    4.6139   13.2704   11.4485 O   0  0  0  0  0  0  0  0  0  0  0  0
    5.6661   13.4176   13.5754 C   0  0  0  0  0  0  0  0  0  0  0  0
    6.9907   13.8071   13.8810 O   0  0  0  0  0  0  0  0  0  0  0  0
    5.6148   11.3405   12.3042 C   0  0  1  0  0  0  0  0  0  0  0  0
    6.3704   10.8544   13.3690 O   0  0  0  0  0  0  0  0  0  0  0  0
    4.1589   11.0126   12.5366 C   0  0  2  0  0  0  0  0  0  0  0  0
    3.8761   10.5822   13.9471 C   0  0  0  0  0  0  0  0  0  0  0  0
    3.6698    9.9820   11.5721 C   0  0  0  0  0  3  0  0  0  0  0  0
    3.9133    8.5879   12.0749 C   0  0  0  0  0  3  0  0  0  0  0  0
    2.7316    7.8696   11.9076 O   0  0  0  0  0  0  0  0  0  0  0  0
    2.4786    7.0829   12.9143 O   0  0  0  0  0  0  0  0  0  0  0  0
  1  2  1  0
  2  3  1  0
  3  4  1  0
  4  5  1  1
  4  6  1  0
  6  7  1  6
  6  8  1  0
  8  9  1  6
  8 10  1  0
 10 11  1  0
 11 12  1  0
 12 13  1  0
 13 14  1  0
 14 15  1  6
 14 16  1  0
 16 17  1  0
 14 18  1  0
 18 19  1  1
 18 20  1  0
 20 21  1  1
 20 22  1  0
 22 23  1  0
 23 24  1  0
 24 25  1  0
M  RAD  5   2   2  10   2  12   2  22   2  23   2
M  END
>  <docking_score>  (3) 
-1.9079999999999999

$$$$
