
     RDKit          3D

 25 26  0  0  0  0  0  0  0  0999 V2000
   20.3679   -2.7474   -2.9478 C   0  0  0  0  0  0  0  0  0  0  0  0
   19.2809   -3.0880   -3.9348 C   0  0  0  0  0  0  0  0  0  0  0  0
   19.2014   -1.8102   -4.9273 C   0  0  0  0  0  0  0  0  0  0  0  0
   17.8911   -3.0211   -3.2783 C   0  0  0  0  0  0  0  0  0  0  0  0
   17.3097   -4.4353   -3.1459 C   0  0  0  0  0  0  0  0  0  0  0  0
   18.2033   -5.3394   -4.1134 C   0  0  2  0  0  0  0  0  0  0  0  0
   17.4364   -6.6742   -4.4063 C   0  0  1  0  0  0  0  0  0  0  0  0
   17.9157   -7.4293   -5.5766 N   0  0  0  0  0  0  0  0  0  0  0  0
   17.2125   -8.7599   -5.5608 C   0  0  0  0  0  0  0  0  0  0  0  0
   18.6824   -6.6533   -3.4969 C   0  0  1  0  0  0  0  0  0  0  0  0
   19.8231   -7.3407   -4.2333 C   0  0  0  0  0  3  0  0  0  0  0  0
   20.1367   -6.6878   -5.5241 C   0  0  0  0  0  0  0  0  0  0  0  0
   19.9844   -7.4454   -6.8136 C   0  0  0  0  0  0  0  0  0  0  0  0
   18.8727   -6.6435   -7.5717 C   0  0  0  0  0  0  0  0  0  0  0  0
   17.5999   -6.8073   -6.8579 C   0  0  2  0  0  0  0  0  0  0  0  0
   16.7977   -5.5371   -6.5693 C   0  0  0  0  0  0  0  0  0  0  0  0
   15.9290   -5.6227   -7.8137 O   0  0  0  0  0  0  0  0  0  0  0  0
   15.8073   -4.2393   -7.8252 O   0  0  0  0  0  0  0  0  0  0  0  0
   16.7602   -3.4538   -7.5690 C   0  0  0  0  0  3  0  0  0  0  0  0
   16.6644   -2.0816   -7.3857 O   0  0  0  0  0  0  0  0  0  0  0  0
   15.3676   -1.8145   -6.9039 C   0  0  0  0  0  0  0  0  0  0  0  0
   15.5732   -1.0215   -5.6216 C   0  0  0  0  0  0  0  0  0  0  0  0
   14.3400   -0.0512   -5.5499 C   0  0  0  0  0  0  0  0  0  0  0  0
   13.8499   -0.3312   -4.0938 C   0  0  0  0  0  3  0  0  0  0  0  0
   14.8520   -1.2061   -3.6025 O   0  0  0  0  0  0  0  0  0  0  0  0
  1  2  1  0
  2  3  1  0
  2  4  1  0
  4  5  1  0
  6  5  1  1
  7  6  1  0
  7  8  1  6
  8  9  1  0
  7 10  1  0
 10 11  1  6
 11 12  1  0
 12 13  1  0
 13 14  1  0
 14 15  1  0
 15 16  1  1
 16 17  1  0
 17 18  1  0
 18 19  1  0
 19 20  1  0
 20 21  1  0
 21 22  1  0
 22 23  1  0
 23 24  1  0
 24 25  1  0
 10  6  1  0
 15  8  1  0
M  RAD  3  11   2  19   2  24   2
M  END
>  <docking_score>  (1) 
-3.5800000000000001

$$$$

     RDKit          3D

 25 26  0  0  0  0  0  0  0  0999 V2000
   14.2377   -5.6591   -6.6763 C   0  0  0  0  0  0  0  0  0  0  0  0
   14.6228   -4.5298   -7.5972 C   0  0  0  0  0  0  0  0  0  0  0  0
   15.5460   -5.2161   -8.7378 C   0  0  0  0  0  0  0  0  0  0  0  0
   15.6466   -3.5932   -6.9327 C   0  0  0  0  0  0  0  0  0  0  0  0
   15.0781   -3.0535   -5.6132 C   0  0  0  0  0  0  0  0  0  0  0  0
   16.3128   -3.0617   -4.5996 C   0  0  2  0  0  0  0  0  0  0  0  0
   15.8538   -3.7160   -3.2516 C   0  0  1  0  0  0  0  0  0  0  0  0
   16.9441   -4.1676   -2.3702 N   0  0  0  0  0  0  0  0  0  0  0  0
   16.3177   -4.5572   -1.0584 C   0  0  0  0  0  0  0  0  0  0  0  0
   16.1204   -2.1997   -3.3522 C   0  0  1  0  0  0  0  0  0  0  0  0
   17.3906   -1.8852   -2.5753 C   0  0  0  0  0  3  0  0  0  0  0  0
   18.5629   -2.6324   -3.0833 C   0  0  0  0  0  0  0  0  0  0  0  0
   19.2824   -3.6091   -2.1952 C   0  0  0  0  0  0  0  0  0  0  0  0
   19.0762   -4.9786   -2.9270 C   0  0  0  0  0  0  0  0  0  0  0  0
   17.6558   -5.3444   -2.8570 C   0  0  2  0  0  0  0  0  0  0  0  0
   16.9868   -5.7820   -4.1612 C   0  0  0  0  0  0  0  0  0  0  0  0
   17.7148   -7.1123   -4.2639 O   0  0  0  0  0  0  0  0  0  0  0  0
   17.5895   -7.0754   -5.6466 O   0  0  0  0  0  0  0  0  0  0  0  0
   18.1228   -6.1915   -6.3712 C   0  0  0  0  0  3  0  0  0  0  0  0
   19.4825   -6.0229   -6.5913 O   0  0  0  0  0  0  0  0  0  0  0  0
   19.6228   -5.1431   -7.6827 C   0  0  0  0  0  0  0  0  0  0  0  0
   19.3706   -3.7551   -7.1121 C   0  0  0  0  0  0  0  0  0  0  0  0
   20.5789   -3.4965   -6.1422 C   0  0  0  0  0  0  0  0  0  0  0  0
   20.6034   -1.9349   -6.1386 C   0  0  0  0  0  3  0  0  0  0  0  0
   19.7841   -1.6191   -7.2521 O   0  0  0  0  0  0  0  0  0  0  0  0
  1  2  1  0
  2  3  1  0
  2  4  1  0
  4  5  1  0
  6  5  1  6
  7  6  1  0
  7  8  1  1
  8  9  1  0
  7 10  1  0
 10 11  1  1
 11 12  1  0
 12 13  1  0
 13 14  1  0
 14 15  1  0
 15 16  1  6
 16 17  1  0
 17 18  1  0
 18 19  1  0
 19 20  1  0
 20 21  1  0
 21 22  1  0
 22 23  1  0
 23 24  1  0
 24 25  1  0
 10  6  1  0
 15  8  1  0
M  RAD  3  11   2  19   2  24   2
M  END
>  <docking_score>  (2) 
-3.46

$$$$

     RDKit          3D

 25 26  0  0  0  0  0  0  0  0999 V2000
   13.9454    0.3707   -4.4036 C   0  0  0  0  0  0  0  0  0  0  0  0
   13.9646   -0.5507   -5.5961 C   0  0  0  0  0  0  0  0  0  0  0  0
   13.6623   -2.0232   -4.9923 C   0  0  0  0  0  0  0  0  0  0  0  0
   15.3964   -0.7512   -6.1225 C   0  0  0  0  0  0  0  0  0  0  0  0
   16.2389   -1.4865   -5.0713 C   0  0  0  0  0  0  0  0  0  0  0  0
   17.2236   -2.4206   -5.9137 C   0  0  2  0  0  0  0  0  0  0  0  0
   18.5205   -1.6091   -6.2532 C   0  0  1  0  0  0  0  0  0  0  0  0
   19.6800   -2.4210   -6.6604 N   0  0  0  0  0  0  0  0  0  0  0  0
   20.7373   -1.4667   -7.1467 C   0  0  0  0  0  0  0  0  0  0  0  0
   17.4835   -1.9484   -7.3440 C   0  0  1  0  0  0  0  0  0  0  0  0
   18.0907   -2.9891   -8.2734 C   0  0  0  0  0  3  0  0  0  0  0  0
   18.4846   -4.2238   -7.5585 C   0  0  0  0  0  0  0  0  0  0  0  0
   19.9241   -4.6562   -7.5288 C   0  0  0  0  0  0  0  0  0  0  0  0
   20.2864   -4.5931   -6.0062 C   0  0  0  0  0  0  0  0  0  0  0  0
   20.2807   -3.1893   -5.5754 C   0  0  2  0  0  0  0  0  0  0  0  0
   19.5113   -2.8594   -4.2950 C   0  0  0  0  0  0  0  0  0  0  0  0
   20.5014   -3.5213   -3.3506 O   0  0  0  0  0  0  0  0  0  0  0  0
   19.4773   -3.7629   -2.4443 O   0  0  0  0  0  0  0  0  0  0  0  0
   18.3521   -4.2292   -2.7722 C   0  0  0  0  0  3  0  0  0  0  0  0
   17.1551   -4.0312   -2.0986 O   0  0  0  0  0  0  0  0  0  0  0  0
   16.2287   -4.9602   -2.6121 C   0  0  0  0  0  0  0  0  0  0  0  0
   16.8576   -5.4845   -3.8947 C   0  0  0  0  0  0  0  0  0  0  0  0
   15.7805   -6.4544   -4.5002 C   0  0  0  0  0  0  0  0  0  0  0  0
   14.8932   -5.4329   -5.2800 C   0  0  0  0  0  3  0  0  0  0  0  0
   15.3991   -5.5421   -6.6002 O   0  0  0  0  0  0  0  0  0  0  0  0
  1  2  1  0
  2  3  1  0
  2  4  1  0
  4  5  1  0
  6  5  1  1
  7  6  1  0
  7  8  1  6
  8  9  1  0
  7 10  1  0
 10 11  1  6
 11 12  1  0
 12 13  1  0
 13 14  1  0
 14 15  1  0
 15 16  1  1
 16 17  1  0
 17 18  1  0
 18 19  1  0
 19 20  1  0
 20 21  1  0
 21 22  1  0
 22 23  1  0
 23 24  1  0
 24 25  1  0
 10  6  1  0
 15  8  1  0
M  RAD  3  11   2  19   2  24   2
M  END
>  <docking_score>  (3) 
-3.2010000000000001

$$$$
