
     RDKit          3D

 24 25  0  0  0  0  0  0  0  0999 V2000
   18.3969   -2.8359   -3.0298 C   0  0  0  0  0  0  0  0  0  0  0  0
   17.9899   -3.9599   -2.0771 C   0  0  0  0  0  0  0  0  0  0  0  0
   16.5520   -3.7569   -1.6216 C   0  0  0  0  0  0  0  0  0  0  0  0
   18.1338   -5.2628   -2.8248 C   0  0  0  0  0  0  0  0  0  0  0  0
   19.2347   -5.1044   -3.8465 C   0  0  0  0  0  0  0  0  0  0  0  0
   20.3845   -6.0427   -3.5486 C   0  0  0  0  0  0  0  0  0  0  0  0
   20.3535   -7.2204   -4.5661 C   0  0  1  0  0  0  0  0  0  0  0  0
   19.7541   -8.4119   -3.7810 C   0  0  0  0  0  0  0  0  0  0  0  0
   19.4053   -6.9008   -5.6667 C   0  0  0  0  0  3  0  0  0  0  0  0
   18.2253   -7.7021   -5.8722 C   0  0  0  0  0  0  0  0  0  0  0  0
   17.2801   -7.4853   -6.9590 C   0  0  0  0  0  0  0  0  0  0  0  0
   17.1783   -6.1065   -7.5059 C   0  0  0  0  0  3  0  0  0  0  0  0
   16.6460   -5.1082   -6.5379 C   0  0  0  0  0  3  0  0  0  0  0  0
   17.4055   -3.8374   -6.4514 C   0  0  0  0  0  0  0  0  0  0  0  0
   17.2528   -2.9083   -7.5900 C   0  0  2  0  0  0  0  0  0  0  0  0
   18.3837   -1.9283   -7.6904 C   0  0  0  0  0  0  0  0  0  0  0  0
   15.9267   -2.3064   -7.7893 C   0  0  0  0  0  0  0  0  0  0  0  0
   15.0127   -2.2541   -6.6483 C   0  0  2  0  0  0  0  0  0  0  0  0
   14.9848   -0.9837   -5.8226 C   0  0  2  0  0  0  0  0  0  0  0  0
   16.2894   -0.4779   -5.7277 O   0  0  0  0  0  0  0  0  0  0  0  0
   14.7547   -1.9026   -4.6113 C   0  0  0  0  0  0  0  0  0  0  0  0
   15.4495   -2.9670   -5.4119 C   0  0  1  0  0  0  0  0  0  0  0  0
   14.8387   -4.3294   -5.3908 C   0  0  0  0  0  0  0  0  0  0  0  0
   15.2831   -4.9859   -6.5625 O   0  0  0  0  0  0  0  0  0  0  0  0
  1  2  1  0
  2  3  1  0
  2  4  1  0
  4  5  1  0
  5  6  1  0
  6  7  1  0
  7  8  1  1
  7  9  1  0
  9 10  1  0
 10 11  1  0
 11 12  1  0
 12 13  1  0
 13 14  1  0
 14 15  1  0
 15 16  1  1
 15 17  1  0
 18 17  1  6
 18 19  1  0
 19 20  1  1
 19 21  1  0
 22 21  1  1
 22 23  1  0
 23 24  1  0
 24 13  1  0
 22 18  1  0
M  RAD  3   9   2  12   2  13   2
M  END
>  <docking_score>  (1) 
-4.3440000000000003

$$$$

     RDKit          3D

 24 25  0  0  0  0  0  0  0  0999 V2000
    5.3737   13.0789   10.1618 C   0  0  0  0  0  0  0  0  0  0  0  0
    6.4047   13.3996   11.2438 C   0  0  0  0  0  0  0  0  0  0  0  0
    5.7746   14.2788   12.3145 C   0  0  0  0  0  0  0  0  0  0  0  0
    6.8665   12.0893   11.8331 C   0  0  0  0  0  0  0  0  0  0  0  0
    5.6955   11.1356   11.8452 C   0  0  0  0  0  0  0  0  0  0  0  0
    6.1709    9.6992   11.8002 C   0  0  0  0  0  0  0  0  0  0  0  0
    5.0759    8.8245   11.1228 C   0  0  1  0  0  0  0  0  0  0  0  0
    3.9650    8.6763   12.1903 C   0  0  0  0  0  0  0  0  0  0  0  0
    4.4851    9.5674    9.9775 C   0  0  0  0  0  3  0  0  0  0  0  0
    3.1117    9.3544    9.5968 C   0  0  0  0  0  0  0  0  0  0  0  0
    2.7080    8.6462    8.3898 C   0  0  0  0  0  0  0  0  0  0  0  0
    3.7712    7.9362    7.6308 C   0  0  0  0  0  3  0  0  0  0  0  0
    3.8741    8.3470    6.2033 C   0  0  0  0  0  3  0  0  0  0  0  0
    3.8554    9.8096    5.9587 C   0  0  0  0  0  0  0  0  0  0  0  0
    5.0821   10.5471    6.3248 C   0  0  2  0  0  0  0  0  0  0  0  0
    4.8343   12.0116    6.5329 C   0  0  0  0  0  0  0  0  0  0  0  0
    6.2954   10.2553    5.5480 C   0  0  0  0  0  0  0  0  0  0  0  0
    6.1395    9.6689    4.2168 C   0  0  2  0  0  0  0  0  0  0  0  0
    6.1290   10.6081    3.0276 C   0  0  2  0  0  0  0  0  0  0  0  0
    5.4494   11.7816    3.3848 O   0  0  0  0  0  0  0  0  0  0  0  0
    5.0998    9.6457    2.4118 C   0  0  0  0  0  0  0  0  0  0  0  0
    4.7569    9.2661    3.8243 C   0  0  1  0  0  0  0  0  0  0  0  0
    4.5735    7.8106    4.1029 C   0  0  0  0  0  0  0  0  0  0  0  0
    4.7998    7.6364    5.4884 O   0  0  0  0  0  0  0  0  0  0  0  0
  1  2  1  0
  2  3  1  0
  2  4  1  0
  4  5  1  0
  5  6  1  0
  6  7  1  0
  7  8  1  1
  7  9  1  0
  9 10  1  0
 10 11  1  0
 11 12  1  0
 12 13  1  0
 13 14  1  0
 14 15  1  0
 15 16  1  6
 15 17  1  0
 18 17  1  1
 18 19  1  0
 19 20  1  1
 19 21  1  0
 22 21  1  6
 22 23  1  0
 23 24  1  0
 24 13  1  0
 22 18  1  0
M  RAD  3   9   2  12   2  13   2
M  END
>  <docking_score>  (2) 
-4.0590000000000002

$$$$

     RDKit          3D

 24 25  0  0  0  0  0  0  0  0999 V2000
    3.7755    9.8485    8.1395 C   0  0  0  0  0  0  0  0  0  0  0  0
    4.1257    8.6030    8.9534 C   0  0  0  0  0  0  0  0  0  0  0  0
    3.7580    8.8192   10.4143 C   0  0  0  0  0  0  0  0  0  0  0  0
    3.3472    7.4479    8.3727 C   0  0  0  0  0  0  0  0  0  0  0  0
    2.8184    7.8642    7.0206 C   0  0  0  0  0  0  0  0  0  0  0  0
    2.8729    6.7099    6.0429 C   0  0  0  0  0  0  0  0  0  0  0  0
    2.7415    7.2663    4.5950 C   0  0  1  0  0  0  0  0  0  0  0  0
    2.2575    8.7260    4.7696 C   0  0  0  0  0  0  0  0  0  0  0  0
    4.0861    7.3244    3.9615 C   0  0  0  0  0  3  0  0  0  0  0  0
    4.8984    8.5093    4.0752 C   0  0  0  0  0  0  0  0  0  0  0  0
    5.8653    8.7271    5.1425 C   0  0  0  0  0  0  0  0  0  0  0  0
    6.2990   10.1274    5.3909 C   0  0  0  0  0  3  0  0  0  0  0  0
    6.2948   10.9878    4.1757 C   0  0  0  0  0  3  0  0  0  0  0  0
    5.8655   12.3910    4.3906 C   0  0  0  0  0  0  0  0  0  0  0  0
    6.8302   13.2683    5.0853 C   0  0  2  0  0  0  0  0  0  0  0  0
    6.1764   14.4667    5.7065 C   0  0  0  0  0  0  0  0  0  0  0  0
    8.0836   13.5746    4.3812 C   0  0  0  0  0  0  0  0  0  0  0  0
    8.1122   13.4291    2.9258 C   0  0  2  0  0  0  0  0  0  0  0  0
    7.8476   14.6631    2.0868 C   0  0  2  0  0  0  0  0  0  0  0  0
    6.8607   15.4347    2.7171 O   0  0  0  0  0  0  0  0  0  0  0  0
    7.1383   13.7142    1.1065 C   0  0  0  0  0  0  0  0  0  0  0  0
    6.9037   12.8234    2.2932 C   0  0  1  0  0  0  0  0  0  0  0  0
    7.1367   11.3621    2.0925 C   0  0  0  0  0  0  0  0  0  0  0  0
    7.3902   10.8174    3.3732 O   0  0  0  0  0  0  0  0  0  0  0  0
  1  2  1  0
  2  3  1  0
  2  4  1  0
  4  5  1  0
  5  6  1  0
  6  7  1  0
  7  8  1  1
  7  9  1  0
  9 10  1  0
 10 11  1  0
 11 12  1  0
 12 13  1  0
 13 14  1  0
 14 15  1  0
 15 16  1  6
 15 17  1  0
 18 17  1  1
 18 19  1  0
 19 20  1  1
 19 21  1  0
 22 21  1  6
 22 23  1  0
 23 24  1  0
 24 13  1  0
 22 18  1  0
M  RAD  3   9   2  12   2  13   2
M  END
>  <docking_score>  (3) 
-3.984

$$$$
