
     RDKit          3D

 22 22  0  0  0  0  0  0  0  0999 V2000
   14.8074   -4.0932   -5.3610 C   0  0  0  0  0  0  0  0  0  0  0  0
   16.2974   -3.7919   -5.2360 C   0  0  1  0  0  0  0  0  0  0  0  0
   16.8156   -3.1444   -6.4983 C   0  0  0  0  0  0  0  0  0  0  0  0
   15.9934   -1.9172   -6.8058 C   0  0  1  0  0  0  0  0  0  0  0  0
   15.3026   -2.1314   -7.9991 O   0  0  0  0  0  0  0  0  0  0  0  0
   14.9776   -1.6877   -5.6838 C   0  0  2  0  0  0  0  0  0  0  0  0
   14.3067   -0.5107   -5.9298 O   0  0  0  0  0  0  0  0  0  0  0  0
   15.7632   -1.5486   -4.4038 C   0  0  1  0  0  0  0  0  0  0  0  0
   14.8938   -1.1913   -3.3547 O   0  0  0  0  0  0  0  0  0  0  0  0
   16.5016   -2.8346   -4.0865 C   0  0  1  0  0  0  0  0  0  0  0  0
   16.0198   -3.4286   -2.8521 N   0  0  0  0  0  0  0  0  0  0  0  0
   16.9880   -4.3695   -2.3247 C   0  0  0  0  0  3  0  0  0  0  0  0
   18.2121   -3.5928   -1.9139 C   0  0  0  0  0  0  0  0  0  0  0  0
   19.4740   -4.3567   -2.2479 C   0  0  0  0  0  3  0  0  0  0  0  0
   20.5726   -3.9947   -1.3923 N   0  0  0  0  0  1  0  0  0  0  0  0
   19.7764   -4.1660   -3.5916 O   0  0  0  0  0  0  0  0  0  0  0  0
   20.5803   -3.0238   -3.6793 C   0  0  0  0  0  3  0  0  0  0  0  0
   20.1293   -2.2321   -4.8894 C   0  0  2  0  0  0  0  0  0  0  0  0
   21.0869   -2.3179   -5.8969 O   0  0  0  0  0  0  0  0  0  0  0  0
   19.9614   -0.7628   -4.5564 C   0  0  2  0  0  0  0  0  0  0  0  0
   19.4718   -0.6616   -3.2710 O   0  0  0  0  0  0  0  0  0  0  0  0
   19.0354   -0.1090   -5.5291 C   0  0  0  0  0  2  0  0  0  0  0  0
  2  1  1  6
  2  3  1  0
  3  4  1  0
  4  5  1  6
  4  6  1  0
  6  7  1  6
  6  8  1  0
  8  9  1  1
  8 10  1  0
 10 11  1  1
 11 12  1  0
 12 13  1  0
 13 14  1  0
 14 15  1  0
 14 16  1  0
 16 17  1  0
 17 18  1  0
 18 19  1  6
 18 20  1  0
 20 21  1  0
 20 22  1  6
 10  2  1  0
M  CHG  1  15   1
M  RAD  5  12   2  14   2  15   2  17   2  22   3
M  END
>  <docking_score>  (1) 
-4.0119999999999996

$$$$

     RDKit          3D

 22 22  0  0  0  0  0  0  0  0999 V2000
   17.6284   -5.2204   -2.3620 C   0  0  0  0  0  0  0  0  0  0  0  0
   17.6569   -4.0833   -3.3784 C   0  0  1  0  0  0  0  0  0  0  0  0
   18.3270   -2.8637   -2.7915 C   0  0  0  0  0  0  0  0  0  0  0  0
   19.7008   -3.2382   -2.2923 C   0  0  1  0  0  0  0  0  0  0  0  0
   19.7259   -3.0918   -0.9050 O   0  0  0  0  0  0  0  0  0  0  0  0
   19.9893   -4.7013   -2.6380 C   0  0  2  0  0  0  0  0  0  0  0  0
   21.2820   -4.9960   -2.2663 O   0  0  0  0  0  0  0  0  0  0  0  0
   19.8659   -4.8299   -4.1357 C   0  0  1  0  0  0  0  0  0  0  0  0
   20.2618   -6.1225   -4.5311 O   0  0  0  0  0  0  0  0  0  0  0  0
   18.4478   -4.5327   -4.5834 C   0  0  1  0  0  0  0  0  0  0  0  0
   17.8267   -5.7025   -5.1789 N   0  0  0  0  0  0  0  0  0  0  0  0
   17.8066   -5.5917   -6.6240 C   0  0  0  0  0  3  0  0  0  0  0  0
   16.3723   -5.4285   -7.0559 C   0  0  0  0  0  0  0  0  0  0  0  0
   16.1820   -4.1382   -7.8217 C   0  0  0  0  0  3  0  0  0  0  0  0
   17.4021   -3.3832   -7.9289 N   0  0  0  0  0  1  0  0  0  0  0  0
   15.1657   -3.4021   -7.2230 O   0  0  0  0  0  0  0  0  0  0  0  0
   15.7727   -2.4542   -6.3913 C   0  0  0  0  0  3  0  0  0  0  0  0
   15.0875   -2.5160   -5.0418 C   0  0  2  0  0  0  0  0  0  0  0  0
   13.8331   -3.1066   -5.1727 O   0  0  0  0  0  0  0  0  0  0  0  0
   14.8710   -1.1295   -4.4687 C   0  0  2  0  0  0  0  0  0  0  0  0
   15.0250   -1.1960   -3.0997 O   0  0  0  0  0  0  0  0  0  0  0  0
   13.5117   -0.6231   -4.8250 C   0  0  0  0  0  2  0  0  0  0  0  0
  2  1  1  1
  2  3  1  0
  3  4  1  0
  4  5  1  1
  4  6  1  0
  6  7  1  6
  6  8  1  0
  8  9  1  1
  8 10  1  0
 10 11  1  1
 11 12  1  0
 12 13  1  0
 13 14  1  0
 14 15  1  0
 14 16  1  0
 16 17  1  0
 17 18  1  0
 18 19  1  6
 18 20  1  0
 20 21  1  0
 20 22  1  1
 10  2  1  0
M  CHG  1  15   1
M  RAD  5  12   2  14   2  15   2  17   2  22   3
M  END
>  <docking_score>  (2) 
-3.4540000000000002

$$$$

     RDKit          3D

 22 22  0  0  0  0  0  0  0  0999 V2000
   17.0530   -1.7793   -2.3668 C   0  0  0  0  0  0  0  0  0  0  0  0
   17.0059   -3.2586   -2.7357 C   0  0  1  0  0  0  0  0  0  0  0  0
   15.7676   -3.5646   -3.5445 C   0  0  0  0  0  0  0  0  0  0  0  0
   15.7197   -2.6582   -4.7497 C   0  0  1  0  0  0  0  0  0  0  0  0
   14.6161   -1.8132   -4.6281 O   0  0  0  0  0  0  0  0  0  0  0  0
   16.9896   -1.8048   -4.7988 C   0  0  2  0  0  0  0  0  0  0  0  0
   16.9756   -1.0588   -5.9561 O   0  0  0  0  0  0  0  0  0  0  0  0
   18.1569   -2.7591   -4.8419 C   0  0  1  0  0  0  0  0  0  0  0  0
   19.3497   -2.0349   -5.0340 O   0  0  0  0  0  0  0  0  0  0  0  0
   18.2191   -3.5863   -3.5725 C   0  0  1  0  0  0  0  0  0  0  0  0
   19.4312   -3.3101   -2.8219 N   0  0  0  0  0  0  0  0  0  0  0  0
   20.2467   -4.5032   -2.7093 C   0  0  0  0  0  3  0  0  0  0  0  0
   19.3512   -5.6972   -2.9164 C   0  0  0  0  0  0  0  0  0  0  0  0
   20.0524   -6.7644   -3.7270 C   0  0  0  0  0  3  0  0  0  0  0  0
   20.6445   -6.2360   -4.9271 N   0  0  0  0  0  1  0  0  0  0  0  0
   19.1539   -7.7902   -3.9983 O   0  0  0  0  0  0  0  0  0  0  0  0
   19.0100   -7.8606   -5.3886 C   0  0  0  0  0  3  0  0  0  0  0  0
   17.5335   -8.0058   -5.6945 C   0  0  2  0  0  0  0  0  0  0  0  0
   17.3495   -8.2140   -7.0591 O   0  0  0  0  0  0  0  0  0  0  0  0
   16.7676   -6.7504   -5.3267 C   0  0  2  0  0  0  0  0  0  0  0  0
   15.5454   -7.1233   -4.8077 O   0  0  0  0  0  0  0  0  0  0  0  0
   16.5901   -5.8766   -6.5250 C   0  0  0  0  0  2  0  0  0  0  0  0
  2  1  1  6
  2  3  1  0
  3  4  1  0
  4  5  1  1
  4  6  1  0
  6  7  1  6
  6  8  1  0
  8  9  1  1
  8 10  1  0
 10 11  1  1
 11 12  1  0
 12 13  1  0
 13 14  1  0
 14 15  1  0
 14 16  1  0
 16 17  1  0
 17 18  1  0
 18 19  1  6
 18 20  1  0
 20 21  1  0
 20 22  1  6
 10  2  1  0
M  CHG  1  15   1
M  RAD  5  12   2  14   2  15   2  17   2  22   3
M  END
>  <docking_score>  (3) 
-3.4329999999999998

$$$$
