
     RDKit          3D

 63 63  0  0  0  0  0  0  0  0999 V2000
   16.5996    5.3109   -4.8571 C   0  0  0  0  0  0  0  0  0  0  0  0
   16.6956    4.2854   -5.9475 O   0  0  0  0  0  0  0  0  0  0  0  0
   18.0333    3.7338   -6.3426 C   0  0  0  0  0  3  0  0  0  0  0  0
   19.1342    4.6632   -6.7602 O   0  0  0  0  0  0  0  0  0  0  0  0
   19.4151    5.9004   -5.9600 C   0  0  0  0  0  0  0  0  0  0  0  0
   18.7497    7.1951   -6.3221 C   0  0  0  0  0  0  0  0  0  0  0  0
   20.3616    5.8430   -4.7977 C   0  0  0  0  0  3  0  0  0  0  0  0
   19.9981    6.5042   -3.5012 C   0  0  0  0  0  0  0  0  0  0  0  0
   20.3643    5.8547   -2.1996 N   0  0  0  0  0  0  0  0  0  0  0  0
   19.8580    4.4796   -1.8790 C   0  0  0  0  0  2  0  0  0  0  0  0
   19.2686    7.8148   -3.5064 C   0  0  0  0  0  0  0  0  0  0  0  0
   18.3547    8.1689   -2.3708 C   0  0  0  0  0  0  0  0  0  0  0  0
   19.1972    8.6798   -1.2397 C   0  0  0  0  0  0  0  0  0  0  0  0
   20.6319    8.6414   -1.6763 O   0  0  0  0  0  0  0  0  0  0  0  0
   21.3161    9.9018   -2.1157 C   0  0  0  0  0  0  0  0  0  0  0  0
   16.9474    7.8770   -2.8000 C   0  0  0  0  0  0  0  0  0  0  0  0
   15.5128    7.9154   -2.3634 O   0  0  0  0  0  0  0  0  0  0  0  0
   14.5990    8.2695   -1.2279 C   0  0  0  0  0  0  0  0  0  0  0  0
   14.5549    8.8041    0.1729 O   0  0  0  0  0  0  0  0  0  0  0  0
   15.3974    9.3150    1.3040 C   0  0  0  0  0  0  0  0  0  0  0  0
   16.8048    9.6070    1.7331 C   0  0  0  0  0  0  0  0  0  0  0  0
   18.2394    9.5686    1.2966 O   0  0  0  0  0  0  0  0  0  0  0  0
   19.1532    9.2144    0.1610 C   0  0  0  0  0  3  0  0  0  0  0  0
   14.4836    9.6692    2.4395 C   0  0  0  0  0  3  0  0  0  0  0  0
   13.0764    9.1501    2.4597 C   0  0  0  0  0  0  0  0  0  0  0  0
   12.8206    7.6833    2.6418 N   0  0  0  0  0  0  0  0  0  0  0  0
   11.5219    7.2157    3.2288 C   0  0  0  0  0  3  0  0  0  0  0  0
   11.2756    7.3443    4.7029 O   0  0  0  0  0  0  0  0  0  0  0  0
   10.1629    6.5721    5.3475 O   0  0  0  0  0  0  0  0  0  0  0  0
    9.2409    7.2521    6.3157 C   0  0  0  0  0  0  0  0  0  0  0  0
    8.8523    8.6850    6.1013 C   0  0  0  0  0  3  0  0  0  0  0  0
    9.1174    9.3443    4.7803 C   0  0  0  0  0  2  0  0  0  0  0  0
   11.9250   10.0978    2.2978 C   0  0  0  0  0  0  0  0  0  0  0  0
   11.8863   11.3727    3.0873 O   0  0  0  0  0  0  0  0  0  0  0  0
   11.2839   12.6084    2.4873 O   0  0  0  0  0  0  0  0  0  0  0  0
   10.3682   13.4698    3.3055 C   0  0  0  0  0  0  0  0  0  0  0  0
   10.5695   14.9558    3.3412 O   0  0  0  0  0  0  0  0  0  0  0  0
    9.3840   15.8715    3.4199 C   0  0  0  0  0  3  0  0  0  0  0  0
    8.5088   16.0701    2.2181 O   0  0  0  0  0  0  0  0  0  0  0  0
    9.2513   12.8452    4.0881 C   0  0  0  0  0  0  0  0  0  0  0  0
    9.5020   12.3350    5.4763 C   0  0  0  0  0  0  0  0  0  0  0  0
    9.4386   13.2749    6.6436 C   0  0  0  0  0  0  0  0  0  0  0  0
   10.0737   14.6305    6.5503 C   0  0  0  0  0  3  0  0  0  0  0  0
    9.4783   15.7904    7.2920 O   0  0  0  0  0  0  0  0  0  0  0  0
    9.8927   16.0687    8.7064 C   0  0  0  0  0  3  0  0  0  0  0  0
    9.4707   15.1419    9.8078 C   0  0  0  0  0  0  0  0  0  0  0  0
   10.4477   14.1533   10.3718 C   0  0  0  0  0  0  0  0  0  0  0  0
    8.0715   15.2037   10.3451 C   0  0  0  0  0  2  0  0  0  0  0  0
    7.8838   12.7307    3.4826 C   0  0  0  0  0  0  0  0  0  0  0  0
    7.7012   12.0282    2.1699 C   0  0  0  0  0  0  0  0  0  0  0  0
    6.9688   12.7079    1.0510 C   0  0  0  0  0  3  0  0  0  0  0  0
    7.5474   13.9358    0.4127 O   0  0  0  0  0  0  0  0  0  0  0  0
    9.0294   14.0489    0.2111 O   0  0  0  0  0  0  0  0  0  0  0  0
    6.6988   13.3188    4.1897 C   0  0  0  0  0  0  0  0  0  0  0  0
    6.8797   14.4888    5.1108 C   0  0  0  0  0  2  0  0  0  0  0  0
    5.3329   12.7370    3.9757 C   0  0  0  0  0  0  0  0  0  0  0  0
    4.6263   12.9431    2.6688 C   0  0  0  0  0  0  0  0  0  0  0  0
    3.5609   11.9815    2.2323 O   0  0  0  0  0  0  0  0  0  0  0  0
    3.8626   10.5145    2.1503 C   0  0  0  0  0  3  0  0  0  0  0  0
    4.3435    9.7786    3.3657 C   0  0  0  0  0  2  0  0  0  0  0  0
    4.6737   11.9490    5.0686 O   0  0  0  0  0  0  0  0  0  0  0  0
    3.4070   12.4509    5.6958 C   0  0  0  0  0  3  0  0  0  0  0  0
    3.1125   12.1502    7.1355 C   0  0  0  0  0  2  0  0  0  0  0  0
  1  2  1  0
  2  3  1  0
  3  4  1  0
  4  5  1  0
  5  6  1  0
  5  7  1  0
  8  7  1  0
  8  9  1  0
  9 10  1  0
  8 11  1  0
 11 12  1  0
 12 13  1  0
 13 14  1  0
 14 15  1  0
 12 16  1  0
 16 17  1  0
 17 18  1  0
 18 19  1  0
 19 20  1  0
 20 21  1  0
 21 22  1  0
 22 23  1  0
 20 24  1  0
 25 24  1  0
 25 26  1  0
 26 27  1  0
 27 28  1  0
 28 29  1  0
 29 30  1  0
 30 31  1  0
 31 32  1  0
 25 33  1  0
 33 34  1  0
 34 35  1  0
 36 35  1  0
 36 37  1  0
 37 38  1  0
 38 39  1  0
 36 40  1  0
 40 41  1  0
 41 42  1  0
 42 43  1  0
 43 44  1  0
 44 45  1  0
 45 46  1  0
 46 47  1  0
 46 48  1  0
 40 49  1  0
 49 50  1  0
 50 51  1  0
 51 52  1  0
 52 53  1  0
 49 54  1  0
 54 55  1  0
 54 56  1  0
 56 57  1  0
 57 58  1  0
 58 59  1  0
 59 60  1  0
 56 61  1  0
 61 62  1  0
 62 63  1  0
 23 13  1  0
M  RAD  8   3   2   7   2  10   3  23   2  24   2  27   2  31   2  32   3
M  RAD  8  38   2  43   2  45   2  48   3  51   2  55   3  59   2  60   3
M  RAD  2  62   2  63   3
M  END
>  <docking_score>  (1) 
40.521000000000001

$$$$
