
     RDKit          3D

 32 32  0  0  0  0  0  0  0  0999 V2000
   21.2166    1.8120   -2.9511 C   0  0  0  0  0  0  0  0  0  0  0  0
   20.9285    1.8270   -4.2843 O   0  0  0  0  0  0  0  0  0  0  0  0
   20.1370    0.6717   -4.6457 C   0  0  0  0  0  3  0  0  0  0  0  0
   20.9353   -0.3636   -4.1073 O   0  0  0  0  0  0  0  0  0  0  0  0
   20.1387   -1.5262   -3.9427 C   0  0  2  0  0  0  0  0  0  0  0  0
   19.5834   -1.4735   -2.5040 C   0  0  0  0  0  0  0  0  0  0  0  0
   18.1195   -1.3951   -2.5112 C   0  0  0  0  0  2  0  0  0  0  0  0
   21.1708   -2.6543   -3.9499 C   0  0  1  0  0  0  0  0  0  0  0  0
   21.0954   -3.7180   -3.0649 N   0  0  0  0  0  0  0  0  0  0  0  0
   20.7234   -4.9216   -3.8822 C   0  0  0  0  0  3  0  0  0  0  0  0
   19.2549   -5.1513   -3.8081 C   0  0  0  0  0  0  0  0  0  0  0  0
   18.7275   -5.0046   -2.3765 C   0  0  0  0  0  0  0  0  0  0  0  0
   21.3392   -3.0984   -5.3619 C   0  0  0  0  0  0  0  0  0  0  0  0
   20.2158   -2.7059   -6.2721 C   0  0  0  0  0  0  0  0  0  0  0  0
   20.0482   -3.9597   -7.0522 O   0  0  0  0  0  0  0  0  0  0  0  0
   18.8955   -3.6986   -7.7256 N   0  0  0  0  0  0  0  0  0  0  0  0
   17.8961   -4.6549   -7.3941 C   0  0  0  0  0  0  0  0  0  0  0  0
   16.6044   -3.9937   -7.2249 C   0  0  2  0  0  0  0  0  0  0  0  0
   16.7578   -2.7433   -6.6304 O   0  0  0  0  0  0  0  0  0  0  0  0
   16.8694   -2.9132   -5.2463 C   0  0  0  0  0  3  0  0  0  0  0  0
   15.5917   -3.1735   -4.6474 O   0  0  0  0  0  0  0  0  0  0  0  0
   14.6183   -2.9669   -5.4996 C   0  0  2  0  0  0  0  0  0  0  0  0
   13.1811   -2.9425   -5.1502 C   0  0  0  0  0  0  0  0  0  0  0  0
   12.8796   -1.5588   -4.8551 O   0  0  0  0  0  0  0  0  0  0  0  0
   14.0066   -0.9179   -5.3442 O   0  0  0  0  0  0  0  0  0  0  0  0
   13.8968    0.3233   -4.5263 C   0  0  0  0  0  2  0  0  0  0  0  0
   14.5451   -4.2105   -6.3634 O   0  0  0  0  0  0  0  0  0  0  0  0
   15.7855   -4.8210   -6.1087 C   0  0  1  0  0  0  0  0  0  0  0  0
   15.8658   -6.2393   -6.5995 C   0  0  0  0  0  0  0  0  0  0  0  0
   16.8992   -6.9600   -6.1098 O   0  0  0  0  0  0  0  0  0  0  0  0
   16.6674   -8.0575   -5.3610 C   0  0  0  0  0  3  0  0  0  0  0  0
   17.2225   -9.3635   -5.7120 C   0  0  0  0  0  0  0  0  0  0  0  0
  1  2  1  0
  2  3  1  0
  3  4  1  0
  4  5  1  0
  5  6  1  1
  6  7  1  0
  5  8  1  0
  8  9  1  0
  9 10  1  0
 10 11  1  0
 11 12  1  0
  8 13  1  6
 13 14  1  0
 14 15  1  0
 15 16  1  0
 16 17  1  0
 18 17  1  1
 18 19  1  0
 19 20  1  0
 20 21  1  0
 21 22  1  0
 22 23  1  1
 23 24  1  0
 24 25  1  0
 25 26  1  0
 22 27  1  0
 27 28  1  0
 28 29  1  6
 29 30  1  0
 30 31  1  0
 31 32  1  0
 28 18  1  0
M  RAD  6   3   2   7   3  10   2  20   2  26   3  31   2
M  END
>  <docking_score>  (1) 
-2.5489999999999999

$$$$

     RDKit          3D

 32 32  0  0  0  0  0  0  0  0999 V2000
   13.7101   -0.1900   -4.3391 C   0  0  0  0  0  0  0  0  0  0  0  0
   14.5039    0.2235   -5.3684 O   0  0  0  0  0  0  0  0  0  0  0  0
   15.2245   -0.8953   -5.9351 C   0  0  0  0  0  3  0  0  0  0  0  0
   16.3076   -0.9859   -5.0310 O   0  0  0  0  0  0  0  0  0  0  0  0
   17.0231   -2.1852   -5.2825 C   0  0  2  0  0  0  0  0  0  0  0  0
   17.3810   -2.7761   -3.9027 C   0  0  0  0  0  0  0  0  0  0  0  0
   16.6821   -2.0611   -2.8306 C   0  0  0  0  0  2  0  0  0  0  0  0
   18.3401   -1.6825   -5.8747 C   0  0  1  0  0  0  0  0  0  0  0  0
   18.8279   -0.4153   -5.5982 N   0  0  0  0  0  0  0  0  0  0  0  0
   19.9868   -0.6040   -4.6621 C   0  0  0  0  0  3  0  0  0  0  0  0
   20.0603    0.5365   -3.7089 C   0  0  0  0  0  0  0  0  0  0  0  0
   21.3702    0.5294   -2.9129 C   0  0  0  0  0  0  0  0  0  0  0  0
   19.3617   -2.7456   -5.6617 C   0  0  0  0  0  0  0  0  0  0  0  0
   20.0329   -3.2188   -6.9148 C   0  0  0  0  0  0  0  0  0  0  0  0
   20.0230   -4.6877   -6.6897 O   0  0  0  0  0  0  0  0  0  0  0  0
   18.6933   -4.9592   -6.7825 N   0  0  0  0  0  0  0  0  0  0  0  0
   18.3275   -5.9825   -5.8647 C   0  0  0  0  0  0  0  0  0  0  0  0
   18.0495   -7.2247   -6.5817 C   0  0  2  0  0  0  0  0  0  0  0  0
   16.6879   -7.5182   -6.5621 O   0  0  0  0  0  0  0  0  0  0  0  0
   16.3771   -8.1334   -5.3448 C   0  0  0  0  0  3  0  0  0  0  0  0
   16.7947   -9.5061   -5.3316 O   0  0  0  0  0  0  0  0  0  0  0  0
   17.1551   -9.9028   -6.5271 C   0  0  2  0  0  0  0  0  0  0  0  0
   17.4391  -11.3055   -6.9013 C   0  0  0  0  0  0  0  0  0  0  0  0
   16.1718  -11.8536   -7.3326 O   0  0  0  0  0  0  0  0  0  0  0  0
   16.5539  -13.0975   -7.8086 O   0  0  0  0  0  0  0  0  0  0  0  0
   17.6584  -12.6366   -8.6970 C   0  0  0  0  0  2  0  0  0  0  0  0
   18.5715   -9.4009   -6.7272 O   0  0  0  0  0  0  0  0  0  0  0  0
   18.6861   -8.4288   -5.7182 C   0  0  1  0  0  0  0  0  0  0  0  0
   20.0997   -7.9765   -5.4815 C   0  0  0  0  0  0  0  0  0  0  0  0
   20.3182   -7.3688   -4.2941 O   0  0  0  0  0  0  0  0  0  0  0  0
   21.2986   -7.8058   -3.4776 C   0  0  0  0  0  3  0  0  0  0  0  0
   21.3822   -9.2008   -3.0486 C   0  0  0  0  0  0  0  0  0  0  0  0
  1  2  1  0
  2  3  1  0
  3  4  1  0
  4  5  1  0
  5  6  1  1
  6  7  1  0
  5  8  1  0
  8  9  1  0
  9 10  1  0
 10 11  1  0
 11 12  1  0
  8 13  1  1
 13 14  1  0
 14 15  1  0
 15 16  1  0
 16 17  1  0
 18 17  1  1
 18 19  1  0
 19 20  1  0
 20 21  1  0
 21 22  1  0
 22 23  1  1
 23 24  1  0
 24 25  1  0
 25 26  1  0
 22 27  1  0
 27 28  1  0
 28 29  1  6
 29 30  1  0
 30 31  1  0
 31 32  1  0
 28 18  1  0
M  RAD  6   3   2   7   3  10   2  20   2  26   3  31   2
M  END
>  <docking_score>  (2) 
-2.2850000000000001

$$$$

     RDKit          3D

 32 32  0  0  0  0  0  0  0  0999 V2000
    3.2767   14.6945    4.8294 C   0  0  0  0  0  0  0  0  0  0  0  0
    3.4908   14.0003    5.9838 O   0  0  0  0  0  0  0  0  0  0  0  0
    2.2611   13.3977    6.4494 C   0  0  0  0  0  3  0  0  0  0  0  0
    2.7635   12.2153    7.0396 O   0  0  0  0  0  0  0  0  0  0  0  0
    2.2685   12.1115    8.3653 C   0  0  2  0  0  0  0  0  0  0  0  0
    2.4683   13.4971    9.0143 C   0  0  0  0  0  0  0  0  0  0  0  0
    2.5923   13.3794   10.4703 C   0  0  0  0  0  2  0  0  0  0  0  0
    3.2816   11.1858    9.0395 C   0  0  1  0  0  0  0  0  0  0  0  0
    3.1283   10.7685   10.3520 N   0  0  0  0  0  0  0  0  0  0  0  0
    3.9442    9.5159   10.4947 C   0  0  0  0  0  3  0  0  0  0  0  0
    3.9698    9.0863   11.9193 C   0  0  0  0  0  0  0  0  0  0  0  0
    5.0747    9.7975   12.7084 C   0  0  0  0  0  0  0  0  0  0  0  0
    3.5423   10.0529    8.1078 C   0  0  0  0  0  0  0  0  0  0  0  0
    2.5404    8.9419    8.1891 C   0  0  0  0  0  0  0  0  0  0  0  0
    2.9624    8.1109    7.0315 O   0  0  0  0  0  0  0  0  0  0  0  0
    4.2403    8.5408    6.8509 N   0  0  0  0  0  0  0  0  0  0  0  0
    4.9765    7.6048    6.0728 C   0  0  0  0  0  0  0  0  0  0  0  0
    5.5032    8.2522    4.8738 C   0  0  2  0  0  0  0  0  0  0  0  0
    5.9080    9.5566    5.1478 O   0  0  0  0  0  0  0  0  0  0  0  0
    4.7856   10.3911    5.1239 C   0  0  0  0  0  3  0  0  0  0  0  0
    4.3740   10.6746    3.7788 O   0  0  0  0  0  0  0  0  0  0  0  0
    5.2723   10.2726    2.9141 C   0  0  2  0  0  0  0  0  0  0  0  0
    5.2578   10.5940    1.4702 C   0  0  0  0  0  0  0  0  0  0  0  0
    6.3780   11.4852    1.2625 O   0  0  0  0  0  0  0  0  0  0  0  0
    5.8308   12.7077    1.6176 O   0  0  0  0  0  0  0  0  0  0  0  0
    6.7483   13.0110    2.7524 C   0  0  0  0  0  2  0  0  0  0  0  0
    5.0525    8.7826    2.7418 O   0  0  0  0  0  0  0  0  0  0  0  0
    4.2651    8.4682    3.8631 C   0  0  1  0  0  0  0  0  0  0  0  0
    3.6360    7.1052    3.7888 C   0  0  0  0  0  0  0  0  0  0  0  0
    3.4534    6.6232    2.5392 O   0  0  0  0  0  0  0  0  0  0  0  0
    2.5415    5.6562    2.3107 C   0  0  0  0  0  3  0  0  0  0  0  0
    2.2610    4.6111    3.2936 C   0  0  0  0  0  0  0  0  0  0  0  0
  1  2  1  0
  2  3  1  0
  3  4  1  0
  4  5  1  0
  5  6  1  1
  6  7  1  0
  5  8  1  0
  8  9  1  0
  9 10  1  0
 10 11  1  0
 11 12  1  0
  8 13  1  6
 13 14  1  0
 14 15  1  0
 15 16  1  0
 16 17  1  0
 18 17  1  1
 18 19  1  0
 19 20  1  0
 20 21  1  0
 21 22  1  0
 22 23  1  6
 23 24  1  0
 24 25  1  0
 25 26  1  0
 22 27  1  0
 27 28  1  0
 28 29  1  6
 29 30  1  0
 30 31  1  0
 31 32  1  0
 28 18  1  0
M  RAD  6   3   2   7   3  10   2  20   2  26   3  31   2
M  END
>  <docking_score>  (3) 
-1.01

$$$$
