
     RDKit          3D

104107  0  0  0  0  0  0  0  0999 V2000
   20.6358   10.0321   16.3380 O   0  0  0  0  0  0  0  0  0  0  0  0
   19.8357    9.0284   15.5619 C   0  0  0  0  0  0  0  0  0  0  0  0
   18.6355    8.3811   16.1868 N   0  0  0  0  0  0  0  0  0  0  0  0
   18.2354    8.7374   17.5879 C   0  0  0  0  0  0  0  0  0  0  0  0
   18.0884    7.6614   18.6226 C   0  0  0  0  0  0  0  0  0  0  0  0
   16.9680    6.6695   18.5191 C   0  0  0  0  0  0  0  0  0  0  0  0
   17.1564    5.4042   17.7358 C   0  0  0  0  0  0  0  0  0  0  0  0
   16.0361    4.4122   17.6323 C   0  0  0  0  0  0  0  0  0  0  0  0
   14.6122    4.8832   17.6609 C   0  0  0  0  0  0  0  0  0  0  0  0
   13.4919    3.8911   17.5573 N   0  0  0  0  0  0  0  0  0  0  0  0
   13.7749    2.4824   17.1268 C   0  0  0  0  0  0  0  0  0  0  0  0
   15.0054    1.7211   16.7311 N   0  0  0  0  0  0  0  0  0  0  0  0
   14.1753    0.4901   16.5179 C   0  0  0  0  0  0  0  0  0  0  0  0
   12.9448    1.2514   16.9136 N   0  0  0  0  0  0  0  0  0  0  0  0
   20.2357    8.6720   14.1609 C   0  0  0  0  0  0  0  0  0  0  0  0
   19.5015    7.5920   13.4230 C   0  0  0  0  0  0  0  0  0  0  0  0
   18.3870    7.9489   12.4847 C   0  0  0  0  0  0  0  0  0  0  0  0
   17.6528    6.8688   11.7469 C   0  0  0  0  0  0  0  0  0  0  0  0
   18.2662    5.5072   11.6049 C   0  0  0  0  0  0  0  0  0  0  0  0
   17.5320    4.4272   10.8671 C   0  0  0  0  0  0  0  0  0  0  0  0
   16.0957    4.1407   11.1908 C   0  0  0  0  0  0  0  0  0  0  0  0
   15.3615    3.0606   10.4530 C   0  0  0  0  0  0  0  0  0  0  0  0
   14.3097    2.2542   11.1554 C   0  0  0  0  0  0  0  0  0  0  0  0
   13.5755    1.1741   10.4176 C   0  0  0  0  0  0  0  0  0  0  0  0
   13.0073    1.4483    9.0568 O   0  0  0  0  0  0  0  0  0  0  0  0
   13.3767    0.5694    7.8987 C   0  0  0  0  0  0  0  0  0  0  0  0
   14.7932    0.9717    7.6129 C   0  0  0  0  0  0  0  0  0  0  0  0
   16.0935    0.9031    6.8684 S   0  0  0  0  0  0  0  0  0  0  0  0
   17.0202    0.3774    5.8125 O   0  0  0  0  0  0  0  0  0  0  0  0
   17.3895   -0.5015    4.6544 C   0  0  0  0  0  0  0  0  0  0  0  0
   17.1286   -1.5594    3.6235 N   0  0  0  0  0  0  0  0  0  0  0  0
   16.2888   -2.5868    2.9240 C   0  0  0  0  0  0  0  0  0  0  0  0
   15.0367   -3.3802    2.6944 C   0  0  0  0  0  0  0  0  0  0  0  0
   13.6202   -3.7824    2.9802 C   0  0  0  0  0  0  0  0  0  0  0  0
   12.3199   -3.7139    3.7247 C   0  0  0  0  0  0  0  0  0  0  0  0
   11.3932   -3.1881    4.7806 N   0  0  0  0  0  0  0  0  0  0  0  0
   11.0238   -2.3093    5.9387 N   0  0  0  0  0  0  0  0  0  0  0  0
   11.2849   -1.2513    6.9696 C   0  0  0  0  0  0  0  0  0  0  0  0
   12.1246   -0.2240    7.6691 C   0  0  0  0  0  0  0  0  0  0  0  0
   11.1979    0.3018    8.7250 N   0  0  0  0  0  0  0  0  0  0  0  0
    9.8801   -0.3719    8.9694 C   0  0  0  0  0  0  0  0  0  0  0  0
    8.6162    0.2389    8.4408 C   0  0  0  0  0  0  0  0  0  0  0  0
    7.5125    0.6138    9.3850 C   0  0  0  0  0  0  0  0  0  0  0  0
    6.2486    1.2246    8.8565 C   0  0  0  0  0  0  0  0  0  0  0  0
    5.3370    1.9783    9.7790 C   0  0  0  0  0  0  0  0  0  0  0  0
    4.0730    2.5890    9.2504 N   0  0  0  0  0  0  0  0  0  0  0  0
    3.9132    4.0803    9.2274 C   0  0  0  0  0  0  0  0  0  0  0  0
    4.6447    4.9285   10.2251 O   0  0  0  0  0  0  0  0  0  0  0  0
    5.9738    6.7105    8.4452 C   0  0  0  0  0  0  0  0  0  0  0  0
    4.9280    7.3607    8.5829 C   0  0  0  0  0  0  0  0  0  0  0  0
    5.0151    8.1834    8.0318 C   0  0  0  0  0  0  0  0  0  0  0  0
    4.2287    9.1771    7.8248 N   0  0  0  0  0  0  0  0  0  0  0  0
    4.8781    9.4810    7.3038 C   0  0  0  0  0  0  0  0  0  0  0  0
    4.7511   10.4883    6.7493 C   0  0  0  0  0  0  0  0  0  0  0  0
    5.4802   10.5221    6.3536 N   0  0  0  0  0  4  0  0  0  0  0  0
    5.4191   11.7368    5.6377 C   0  0  0  0  0  0  0  0  0  0  0  0
    4.8821   11.3820    6.1321 C   0  0  0  0  0  0  0  0  0  0  0  0
    4.2884   10.0102    7.2814 C   0  0  0  0  0  0  0  0  0  0  0  0
    4.0417    9.3560    7.8108 N   0  0  0  0  0  0  0  0  0  0  0  0
    4.1512    8.5910    8.2252 C   0  0  0  0  0  0  0  0  0  0  0  0
    4.5951    7.8666    8.4427 C   0  0  0  0  0  0  0  0  0  0  0  0
    5.6048    6.3320    8.8678 C   0  0  0  0  0  0  0  0  0  0  0  0
    6.2606    5.8560    8.8235 C   0  0  0  0  0  0  0  0  0  0  0  0
    7.5460    6.0124    8.0664 N   0  0  0  0  0  0  0  0  0  0  0  0
    8.4935    6.7202    7.1437 C   0  0  0  0  0  0  0  0  0  0  0  0
    8.9154    7.8391    6.2383 C   0  0  0  0  0  0  0  0  0  0  0  0
    8.7281    9.1478    5.5293 C   0  0  0  0  0  0  0  0  0  0  0  0
    7.9688   10.3868    5.1573 C   0  0  0  0  0  0  0  0  0  0  0  0
    6.7878   11.3108    5.1960 C   0  0  0  0  0  0  0  0  0  0  0  0
    3.4319   13.4035    5.6338 O   0  0  0  0  0  0  0  0  0  0  0  0
    4.0283   14.0961    4.4444 C   0  0  0  0  0  0  0  0  0  0  0  0
    5.4889   13.9405    4.1405 C   0  0  0  0  0  0  0  0  0  0  0  0
    6.4156   15.1101    4.2933 C   0  0  0  0  0  0  0  0  0  0  0  0
    7.8762   14.9545    3.9894 N   0  0  0  0  0  0  0  0  0  0  0  0
    8.4112   13.6275    3.5390 C   0  0  0  0  0  0  0  0  0  0  0  0
    9.8306   13.2492    3.8425 O   0  0  0  0  0  0  0  0  0  0  0  0
   10.3056   13.1981    5.2645 C   0  0  0  0  0  0  0  0  0  0  0  0
   11.7482   13.4576    5.5832 N   0  0  0  0  0  3  0  0  0  0  0  0
   12.7178   13.7590    4.4789 N   0  0  0  0  0  0  0  0  0  0  0  0
   14.1839   13.5151    4.6809 C   0  0  0  0  0  0  0  0  0  0  0  0
   14.8101   13.7754    6.0189 C   0  0  0  0  0  0  0  0  0  0  0  0
   16.2763   13.5316    6.2210 C   0  0  0  0  0  0  0  0  0  0  0  0
   16.8484   13.5070    7.6074 C   0  0  0  0  0  0  0  0  0  0  0  0
   18.3146   13.2631    7.8094 C   0  0  0  0  0  0  0  0  0  0  0  0
   19.1862   12.9201    6.6378 C   0  0  0  0  0  0  0  0  0  0  0  0
   20.6525   12.6762    6.8398 C   0  0  0  0  0  0  0  0  0  0  0  0
   21.2380   12.7259    8.2198 N   0  0  0  0  0  0  0  0  0  0  0  0
   20.4646   13.3556    9.3403 C   0  0  0  0  0  0  0  0  0  0  0  0
   20.3411   14.8483    9.4202 C   0  0  0  0  0  0  0  0  0  0  0  0
   12.2213   13.4158    7.0059 C   0  0  0  0  0  0  0  0  0  0  0  0
   12.3556   14.6880    7.7894 C   0  0  0  0  0  0  0  0  0  0  0  0
   12.8286   14.6462    9.2122 N   0  0  0  0  0  0  0  0  0  0  0  0
   11.8524   14.8460   10.3333 C   0  0  0  0  0  0  0  0  0  0  0  0
   12.3254   14.8042   11.7562 C   0  0  0  0  0  0  0  0  0  0  0  0
   11.6363   13.9168   12.7499 C   0  0  0  0  0  0  0  0  0  0  0  0
   12.1093   13.8750   14.1727 N   0  0  0  0  0  0  0  0  0  0  0  0
   12.9978   12.7584   14.6353 C   0  0  0  0  0  0  0  0  0  0  0  0
   13.2979   11.6098   13.7185 C   0  0  0  0  0  0  0  0  0  0  0  0
   14.1863   10.4933   14.1810 C   0  0  0  0  0  0  0  0  0  0  0  0
   14.7213   10.4918   15.5823 C   0  0  0  0  0  0  0  0  0  0  0  0
   15.6097    9.3752   16.0449 N   0  0  0  0  0  3  0  0  0  0  0  0
   17.0246    9.6620   16.4518 C   0  0  0  0  0  0  0  0  0  0  0  0
   17.9130    8.5455   16.9144 N   0  0  0  0  0  3  0  0  0  0  0  0
   17.9455    8.1645   18.3649 C   0  0  0  0  0  0  0  0  0  0  0  0
  1  2  2  0
  2  3  1  0
  3  4  1  0
  4  5  1  0
  5  6  1  0
  6  7  2  3
  7  8  1  0
  8  9  2  3
  9 10  1  0
 10 11  2  3
 11 12  1  0
 12 13  1  0
 13 14  1  0
  2 15  1  0
 15 16  1  0
 16 17  2  3
 17 18  1  0
 18 19  2  3
 19 20  1  0
 20 21  2  3
 21 22  1  0
 22 23  2  3
 23 24  1  0
 24 25  1  0
 25 26  1  0
 26 27  2  3
 27 28  1  0
 28 29  1  0
 29 30  1  0
 30 31  1  0
 31 32  1  0
 32 33  2  3
 33 34  1  0
 34 35  2  3
 35 36  1  0
 36 37  1  0
 37 38  1  0
 38 39  2  3
 39 40  1  0
 40 41  1  0
 41 42  1  0
 42 43  2  3
 43 44  1  0
 44 45  2  3
 45 46  1  0
 46 47  1  0
 47 48  1  0
 48 49  1  0
 49 50  1  0
 50 51  2  3
 51 52  1  0
 52 53  1  0
 53 54  2  3
 54 55  1  0
 55 56  2  3
 56 57  1  0
 57 58  2  3
 58 59  1  0
 59 60  2  3
 60 61  1  0
 61 62  2  3
 62 63  1  0
 63 64  1  0
 64 65  1  0
 65 66  1  0
 66 67  2  3
 67 68  1  0
 68 69  2  3
 55 70  1  0
 70 71  1  0
 71 72  1  0
 72 73  2  3
 73 74  1  0
 74 75  1  0
 75 76  1  0
 76 77  1  0
 77 78  1  0
 78 79  1  0
 79 80  1  0
 80 81  2  3
 81 82  1  0
 82 83  2  3
 83 84  1  0
 84 85  2  3
 85 86  1  0
 86 87  1  0
 87 88  1  0
 88 89  2  0
 78 90  1  0
 90 91  2  3
 91 92  1  0
 92 93  2  3
 93 94  1  0
 94 95  2  3
 95 96  1  0
 96 97  1  0
 97 98  2  3
 98 99  1  0
 99100  2  3
100101  1  0
101102  2  3
102103  1  0
103104  2  0
 14 11  1  0
 39 26  1  0
 63 49  1  0
 69 56  1  0
M  CHG  4  55   1  78   1 101   1 103   1
M  RAD  3  78   2 101   2 103   2
M  END
>  <docking_score>  (1) 
187.53100000000001

$$$$

     RDKit          3D

104107  0  0  0  0  0  0  0  0999 V2000
   12.9160  -15.4958    3.3455 O   0  0  0  0  0  0  0  0  0  0  0  0
   12.2783  -15.1114    2.0434 C   0  0  0  0  0  0  0  0  0  0  0  0
   10.8048  -15.3083    1.8429 N   0  0  0  0  0  0  0  0  0  0  0  0
    9.9691  -15.8897    2.9445 C   0  0  0  0  0  0  0  0  0  0  0  0
    8.5000  -16.1088    2.7356 C   0  0  0  0  0  0  0  0  0  0  0  0
    7.6562  -15.0198    2.1421 C   0  0  0  0  0  0  0  0  0  0  0  0
    7.9936  -14.4615    0.7914 C   0  0  0  0  0  0  0  0  0  0  0  0
    7.1499  -13.3725    0.1979 C   0  0  0  0  0  0  0  0  0  0  0  0
    7.7335  -12.0088   -0.0252 C   0  0  0  0  0  0  0  0  0  0  0  0
    6.8897  -10.9198   -0.6188 N   0  0  0  0  0  0  0  0  0  0  0  0
    5.7413  -11.2672   -1.5190 C   0  0  0  0  0  0  0  0  0  0  0  0
    5.1493  -12.5439   -2.0385 N   0  0  0  0  0  0  0  0  0  0  0  0
    4.1172  -11.7586   -2.7921 C   0  0  0  0  0  0  0  0  0  0  0  0
    4.7092  -10.4819   -2.2727 N   0  0  0  0  0  0  0  0  0  0  0  0
   13.1139  -14.5300    0.9418 C   0  0  0  0  0  0  0  0  0  0  0  0
   13.1771  -13.0433    0.7532 C   0  0  0  0  0  0  0  0  0  0  0  0
   13.2048  -12.1362    1.9475 C   0  0  0  0  0  0  0  0  0  0  0  0
   13.2680  -10.6495    1.7589 C   0  0  0  0  0  0  0  0  0  0  0  0
   14.1048   -9.8115    2.6797 C   0  0  0  0  0  0  0  0  0  0  0  0
   14.1680   -8.3247    2.4911 C   0  0  0  0  0  0  0  0  0  0  0  0
   13.1104   -7.4469    3.0917 C   0  0  0  0  0  0  0  0  0  0  0  0
   13.1736   -5.9601    2.9031 C   0  0  0  0  0  0  0  0  0  0  0  0
   13.0380   -5.0477    4.0859 C   0  0  0  0  0  0  0  0  0  0  0  0
   13.1012   -3.5609    3.8973 C   0  0  0  0  0  0  0  0  0  0  0  0
   11.9359   -2.7042    4.2948 O   0  0  0  0  0  0  0  0  0  0  0  0
   10.8736   -3.2555    5.1990 C   0  0  0  0  0  0  0  0  0  0  0  0
   10.1787   -4.2575    4.3254 C   0  0  0  0  0  0  0  0  0  0  0  0
    9.1486   -5.3063    4.0272 S   0  0  0  0  0  0  0  0  0  0  0  0
    7.9875   -6.1943    4.3635 O   0  0  0  0  0  0  0  0  0  0  0  0
    6.9252   -6.7456    5.2676 C   0  0  0  0  0  0  0  0  0  0  0  0
    6.1720   -6.8510    6.5607 N   0  0  0  0  0  0  0  0  0  0  0  0
    5.8775   -6.4896    7.9863 C   0  0  0  0  0  0  0  0  0  0  0  0
    6.0995   -5.7330    9.2623 C   0  0  0  0  0  0  0  0  0  0  0  0
    6.7944   -4.7310   10.1359 C   0  0  0  0  0  0  0  0  0  0  0  0
    7.8245   -3.6822   10.4341 C   0  0  0  0  0  0  0  0  0  0  0  0
    8.9857   -2.7941   10.0978 N   0  0  0  0  0  0  0  0  0  0  0  0
   10.0480   -2.2428    9.1936 N   0  0  0  0  0  0  0  0  0  0  0  0
   10.8010   -2.1375    7.9006 C   0  0  0  0  0  0  0  0  0  0  0  0
   11.0957   -2.4989    6.4750 C   0  0  0  0  0  0  0  0  0  0  0  0
   12.2569   -1.6109    6.1387 N   0  0  0  0  0  0  0  0  0  0  0  0
   13.1930   -1.9882    5.0291 C   0  0  0  0  0  0  0  0  0  0  0  0
   13.1873   -1.2110    3.7461 C   0  0  0  0  0  0  0  0  0  0  0  0
   12.5967   -1.8144    2.5064 C   0  0  0  0  0  0  0  0  0  0  0  0
   12.5909   -1.0373    1.2234 C   0  0  0  0  0  0  0  0  0  0  0  0
   13.5661    0.0845    1.0216 C   0  0  0  0  0  0  0  0  0  0  0  0
   13.5602    0.8616   -0.2614 N   0  0  0  0  0  0  0  0  0  0  0  0
   12.4760    1.8637   -0.5263 C   0  0  0  0  0  0  0  0  0  0  0  0
   11.0800    1.3989   -0.8179 O   0  0  0  0  0  0  0  0  0  0  0  0
    9.6855    2.7621    1.2575 C   0  0  0  0  0  0  0  0  0  0  0  0
    8.9947    3.1539    0.3064 C   0  0  0  0  0  0  0  0  0  0  0  0
    8.2883    3.7469    0.6770 C   0  0  0  0  0  0  0  0  0  0  0  0
    7.3290    4.4017    0.1295 N   0  0  0  0  0  0  0  0  0  0  0  0
    7.1415    4.6633    0.9553 C   0  0  0  0  0  0  0  0  0  0  0  0
    6.2487    5.3734    1.1482 C   0  0  0  0  0  0  0  0  0  0  0  0
    6.3060    5.4477    1.9732 N   0  0  0  0  0  4  0  0  0  0  0  0
    5.2405    6.3102    2.3085 C   0  0  0  0  0  0  0  0  0  0  0  0
    5.4857    6.0201    1.5914 C   0  0  0  0  0  0  0  0  0  0  0  0
    6.6103    5.0003    0.4730 C   0  0  0  0  0  0  0  0  0  0  0  0
    7.1508    4.5165   -0.0197 N   0  0  0  0  0  0  0  0  0  0  0  0
    7.8304    3.9782   -0.1517 C   0  0  0  0  0  0  0  0  0  0  0  0
    8.5143    3.4919    0.1031 C   0  0  0  0  0  0  0  0  0  0  0  0
    9.9714    2.4665    0.7199 C   0  0  0  0  0  0  0  0  0  0  0  0
   10.4641    2.1721    1.2936 C   0  0  0  0  0  0  0  0  0  0  0  0
   10.4808    2.3723    2.7801 N   0  0  0  0  0  0  0  0  0  0  0  0
    9.9768    2.9427    4.0727 C   0  0  0  0  0  0  0  0  0  0  0  0
    9.0521    3.7702    4.9153 C   0  0  0  0  0  0  0  0  0  0  0  0
    7.8897    4.6910    5.1412 C   0  0  0  0  0  0  0  0  0  0  0  0
    6.7200    5.5227    4.7055 C   0  0  0  0  0  0  0  0  0  0  0  0
    5.7744    6.1006    3.6944 C   0  0  0  0  0  0  0  0  0  0  0  0
    3.5519    7.3626    0.6447 O   0  0  0  0  0  0  0  0  0  0  0  0
    2.8458    8.0020    1.8033 C   0  0  0  0  0  0  0  0  0  0  0  0
    3.5559    8.1709    3.1138 C   0  0  0  0  0  0  0  0  0  0  0  0
    2.8780    8.8807    4.2482 C   0  0  0  0  0  0  0  0  0  0  0  0
    3.5880    9.0495    5.5586 N   0  0  0  0  0  0  0  0  0  0  0  0
    4.2915   10.3372    5.8699 C   0  0  0  0  0  0  0  0  0  0  0  0
    4.0487   11.5489    5.0197 O   0  0  0  0  0  0  0  0  0  0  0  0
    4.4123   12.9106    5.5333 C   0  0  0  0  0  0  0  0  0  0  0  0
    5.8084   13.4304    5.3575 N   0  0  0  0  0  3  0  0  0  0  0  0
    6.1903   14.7627    5.9314 N   0  0  0  0  0  0  0  0  0  0  0  0
    7.2365   14.8455    7.0032 C   0  0  0  0  0  0  0  0  0  0  0  0
    6.8313   14.8558    8.4474 C   0  0  0  0  0  0  0  0  0  0  0  0
    7.8773   14.9385    9.5193 C   0  0  0  0  0  0  0  0  0  0  0  0
    9.3269   14.7828    9.1663 C   0  0  0  0  0  0  0  0  0  0  0  0
   10.3728   14.8655   10.2383 C   0  0  0  0  0  0  0  0  0  0  0  0
   10.2038   15.8254   11.3785 C   0  0  0  0  0  0  0  0  0  0  0  0
   11.2498   15.9082   12.4506 C   0  0  0  0  0  0  0  0  0  0  0  0
   11.8847   14.6555   12.9773 N   0  0  0  0  0  0  0  0  0  0  0  0
   13.2218   14.2168   12.4578 C   0  0  0  0  0  0  0  0  0  0  0  0
   13.4586   14.1249   10.9795 C   0  0  0  0  0  0  0  0  0  0  0  0
    6.8223   12.6181    4.6079 C   0  0  0  0  0  0  0  0  0  0  0  0
    7.0192   12.8362    3.1369 C   0  0  0  0  0  0  0  0  0  0  0  0
    8.0331   12.0239    2.3874 N   0  0  0  0  0  0  0  0  0  0  0  0
    8.9338   11.0801    3.1277 C   0  0  0  0  0  0  0  0  0  0  0  0
    9.9478   10.2677    2.3782 C   0  0  0  0  0  0  0  0  0  0  0  0
   10.6003    9.0889    3.0374 C   0  0  0  0  0  0  0  0  0  0  0  0
   11.6142    8.2766    2.2879 N   0  0  0  0  0  0  0  0  0  0  0  0
   13.0184    8.7826    2.1381 C   0  0  0  0  0  0  0  0  0  0  0  0
   13.4414   10.0396    2.8387 C   0  0  0  0  0  0  0  0  0  0  0  0
   14.8455   10.5456    2.6889 C   0  0  0  0  0  0  0  0  0  0  0  0
   15.9384    9.6105    2.2634 C   0  0  0  0  0  0  0  0  0  0  0  0
   17.3425   10.1165    2.1136 N   0  0  0  0  0  3  0  0  0  0  0  0
   18.3098    9.3925    1.2248 C   0  0  0  0  0  0  0  0  0  0  0  0
   19.7139    9.8985    1.0750 N   0  0  0  0  0  3  0  0  0  0  0  0
   20.8430    9.1939    1.7671 C   0  0  0  0  0  0  0  0  0  0  0  0
  1  2  2  0
  2  3  1  0
  3  4  1  0
  4  5  1  0
  5  6  1  0
  6  7  2  3
  7  8  1  0
  8  9  2  3
  9 10  1  0
 10 11  2  3
 11 12  1  0
 12 13  1  0
 13 14  1  0
  2 15  1  0
 15 16  1  0
 16 17  2  3
 17 18  1  0
 18 19  2  3
 19 20  1  0
 20 21  2  3
 21 22  1  0
 22 23  2  3
 23 24  1  0
 24 25  1  0
 25 26  1  0
 26 27  2  3
 27 28  1  0
 28 29  1  0
 29 30  1  0
 30 31  1  0
 31 32  1  0
 32 33  2  3
 33 34  1  0
 34 35  2  3
 35 36  1  0
 36 37  1  0
 37 38  1  0
 38 39  2  3
 39 40  1  0
 40 41  1  0
 41 42  1  0
 42 43  2  3
 43 44  1  0
 44 45  2  3
 45 46  1  0
 46 47  1  0
 47 48  1  0
 48 49  1  0
 49 50  1  0
 50 51  2  3
 51 52  1  0
 52 53  1  0
 53 54  2  3
 54 55  1  0
 55 56  2  3
 56 57  1  0
 57 58  2  3
 58 59  1  0
 59 60  2  3
 60 61  1  0
 61 62  2  3
 62 63  1  0
 63 64  1  0
 64 65  1  0
 65 66  1  0
 66 67  2  3
 67 68  1  0
 68 69  2  3
 55 70  1  0
 70 71  1  0
 71 72  1  0
 72 73  2  3
 73 74  1  0
 74 75  1  0
 75 76  1  0
 76 77  1  0
 77 78  1  0
 78 79  1  0
 79 80  1  0
 80 81  2  3
 81 82  1  0
 82 83  2  3
 83 84  1  0
 84 85  2  3
 85 86  1  0
 86 87  1  0
 87 88  1  0
 88 89  2  0
 78 90  1  0
 90 91  2  3
 91 92  1  0
 92 93  2  3
 93 94  1  0
 94 95  2  3
 95 96  1  0
 96 97  1  0
 97 98  2  3
 98 99  1  0
 99100  2  3
100101  1  0
101102  2  3
102103  1  0
103104  2  0
 14 11  1  0
 39 26  1  0
 63 49  1  0
 69 56  1  0
M  CHG  4  55   1  78   1 101   1 103   1
M  RAD  3  78   2 101   2 103   2
M  END
>  <docking_score>  (2) 
189.136

$$$$
