
     RDKit          3D

 33 37  0  0  0  0  0  0  0  0999 V2000
    8.4357   -2.7908   21.9197 C   0  0  0  0  0  0  0  0  0  0  0  0
    8.6069   -1.3748   22.3839 C   0  0  0  0  0  0  0  0  0  0  0  0
    9.3908   -0.1414   22.0457 O   0  0  0  0  0  0  0  0  0  0  0  0
    7.5853   -1.2855   23.6209 N   0  0  0  0  0  0  0  0  0  0  0  0
    6.7597   -0.8453   24.7934 C   0  0  0  0  0  0  0  0  0  0  0  0
    5.9103   -0.4595   25.9680 C   0  0  0  0  0  0  0  0  0  0  0  0
    5.9900    0.9302   26.5268 C   0  0  0  0  0  0  0  0  0  0  0  0
    6.9190    1.9341   25.9111 C   0  0  0  0  0  0  0  0  0  0  0  0
    7.7684    1.5483   24.7365 C   0  0  0  0  0  0  0  0  0  0  0  0
    7.6887    0.1586   24.1776 C   0  0  0  0  0  0  0  0  0  0  0  0
    8.2673    1.3142   24.0430 C   0  0  0  0  0  0  0  0  0  0  0  0
    8.1909    1.1617   24.0608 C   0  0  0  0  0  0  0  0  0  0  0  0
    8.7695    2.3171   23.9261 N   0  0  0  0  0  0  0  0  0  0  0  0
    8.9977    0.9369   23.0115 N   0  0  0  0  0  0  0  0  0  0  0  0
    8.5813   -0.4924   22.8279 N   0  0  0  0  0  0  0  0  0  0  0  0
    9.2493   -1.2255   21.7025 N   0  0  0  0  0  0  0  0  0  0  0  0
    8.7748   -1.0289   20.2932 C   0  0  0  0  0  0  0  0  0  0  0  0
    7.6324   -0.0992   20.0092 O   0  0  0  0  0  0  0  0  0  0  0  0
    9.4428   -1.7620   19.1679 N   0  0  0  0  0  0  0  0  0  0  0  0
   10.8682   -1.4561   18.8150 N   0  0  0  0  0  0  0  0  0  0  0  0
   11.5362   -2.1892   17.6896 C   0  0  0  0  0  0  0  0  0  0  0  0
   10.7082   -2.8216   16.6105 O   0  0  0  0  0  0  0  0  0  0  0  0
   13.0321   -2.2899   17.6434 N   0  0  0  0  0  0  0  0  0  0  0  0
   13.7001   -3.0230   16.5181 C   0  0  0  0  0  0  0  0  0  0  0  0
   14.2402   -2.2623   15.3434 C   0  0  0  0  0  0  0  0  0  0  0  0
   14.9081   -2.9954   14.2181 C   0  0  0  0  0  0  0  0  0  0  0  0
   15.0360   -4.4891   14.2674 C   0  0  0  0  0  0  0  0  0  0  0  0
   14.4958   -5.2498   15.4421 C   0  0  0  0  0  0  0  0  0  0  0  0
   13.8279   -4.5167   16.5674 C   0  0  0  0  0  0  0  0  0  0  0  0
   13.2878   -5.2772   17.7421 C   0  0  0  0  0  0  0  0  0  0  0  0
   14.1411   -5.4840   18.9582 C   0  0  0  0  0  0  0  0  0  0  0  0
   13.5234   -5.9778   20.2328 N   0  0  0  0  0  0  0  0  0  0  0  0
   13.9113   -5.3592   21.5431 N   0  0  0  0  0  0  0  0  0  0  0  0
  1  2  2  0
  2  3  1  0
  2  4  1  0
  4  5  1  0
  5  6  2  0
  6  7  1  0
  7  8  2  0
  8  9  1  0
  9 10  2  0
 10 11  1  0
 11 12  1  0
 12 13  1  0
 13 14  1  0
 14 15  1  0
 15 16  1  0
 16 17  1  0
 17 18  2  0
 17 19  1  0
 19 20  2  3
 20 21  1  0
 21 22  2  0
 21 23  1  0
 23 24  1  0
 24 25  2  0
 25 26  1  0
 26 27  2  0
 27 28  1  0
 28 29  2  0
 29 30  1  0
 30 31  1  0
 31 32  1  0
 32 33  2  0
 14  3  1  0
 15  4  1  0
 10  5  1  0
 13  9  1  0
 29 24  1  0
M  END
>  <docking_score>  (1) 
-7.1420000000000003

$$$$

     RDKit          3D

 33 37  0  0  0  0  0  0  0  0999 V2000
    9.4294   -3.3958   21.7680 C   0  0  0  0  0  0  0  0  0  0  0  0
    9.0465   -1.9655   22.0071 C   0  0  0  0  0  0  0  0  0  0  0  0
    9.3145   -0.5965   21.4554 O   0  0  0  0  0  0  0  0  0  0  0  0
    8.0443   -2.0752   23.2582 N   0  0  0  0  0  0  0  0  0  0  0  0
    7.0927   -1.8007   24.3848 C   0  0  0  0  0  0  0  0  0  0  0  0
    6.1395   -1.5845   25.5226 C   0  0  0  0  0  0  0  0  0  0  0  0
    5.6802   -0.1978   25.8630 C   0  0  0  0  0  0  0  0  0  0  0  0
    6.1740    0.9728   25.0655 C   0  0  0  0  0  0  0  0  0  0  0  0
    7.1271    0.7566   23.9277 C   0  0  0  0  0  0  0  0  0  0  0  0
    7.5864   -0.6301   23.5873 C   0  0  0  0  0  0  0  0  0  0  0  0
    7.6899    0.6222   23.2569 C   0  0  0  0  0  0  0  0  0  0  0  0
    7.6762    0.4569   23.3005 C   0  0  0  0  0  0  0  0  0  0  0  0
    7.7796    1.7091   22.9702 N   0  0  0  0  0  0  0  0  0  0  0  0
    8.5271    0.3914   22.2641 N   0  0  0  0  0  0  0  0  0  0  0  0
    8.6827   -1.0996   22.3144 N   0  0  0  0  0  0  0  0  0  0  0  0
    9.5976   -1.6937   21.2848 N   0  0  0  0  0  0  0  0  0  0  0  0
    9.1623   -1.7742   19.8517 C   0  0  0  0  0  0  0  0  0  0  0  0
    7.8118   -1.2607   19.4481 O   0  0  0  0  0  0  0  0  0  0  0  0
   10.0772   -2.3683   18.8222 N   0  0  0  0  0  0  0  0  0  0  0  0
   10.1888   -3.8581   18.6883 N   0  0  0  0  0  0  0  0  0  0  0  0
   11.1038   -4.4522   17.6587 C   0  0  0  0  0  0  0  0  0  0  0  0
   11.9107   -5.6731   17.9877 O   0  0  0  0  0  0  0  0  0  0  0  0
   11.2118   -3.8253   16.3002 N   0  0  0  0  0  0  0  0  0  0  0  0
   12.1267   -4.4193   15.2708 C   0  0  0  0  0  0  0  0  0  0  0  0
   11.6464   -5.5413   14.3985 C   0  0  0  0  0  0  0  0  0  0  0  0
   12.5614   -6.1353   13.3690 C   0  0  0  0  0  0  0  0  0  0  0  0
   13.9566   -5.6075   13.2117 C   0  0  0  0  0  0  0  0  0  0  0  0
   14.4369   -4.4856   14.0840 C   0  0  0  0  0  0  0  0  0  0  0  0
   13.5220   -3.8916   15.1134 C   0  0  0  0  0  0  0  0  0  0  0  0
   14.0022   -2.7697   15.9857 C   0  0  0  0  0  0  0  0  0  0  0  0
   15.4421   -2.7066   16.4014 C   0  0  0  0  0  0  0  0  0  0  0  0
   15.8864   -3.3727   17.6697 N   0  0  0  0  0  0  0  0  0  0  0  0
   15.6162   -2.7213   18.9936 N   0  0  0  0  0  0  0  0  0  0  0  0
  1  2  2  0
  2  3  1  0
  2  4  1  0
  4  5  1  0
  5  6  2  0
  6  7  1  0
  7  8  2  0
  8  9  1  0
  9 10  2  0
 10 11  1  0
 11 12  1  0
 12 13  1  0
 13 14  1  0
 14 15  1  0
 15 16  1  0
 16 17  1  0
 17 18  2  0
 17 19  1  0
 19 20  2  3
 20 21  1  0
 21 22  2  0
 21 23  1  0
 23 24  1  0
 24 25  2  0
 25 26  1  0
 26 27  2  0
 27 28  1  0
 28 29  2  0
 29 30  1  0
 30 31  1  0
 31 32  1  0
 32 33  2  0
 14  3  1  0
 15  4  1  0
 10  5  1  0
 13  9  1  0
 29 24  1  0
M  END
>  <docking_score>  (2) 
-6.742

$$$$

     RDKit          3D

 33 37  0  0  0  0  0  0  0  0999 V2000
    9.1047   -3.5728   22.2841 C   0  0  0  0  0  0  0  0  0  0  0  0
    8.9413   -2.0896   22.4359 C   0  0  0  0  0  0  0  0  0  0  0  0
    9.4669   -0.8102   21.8552 O   0  0  0  0  0  0  0  0  0  0  0  0
    7.8449   -1.9755   23.6048 N   0  0  0  0  0  0  0  0  0  0  0  0
    6.8695   -1.4968   24.6391 C   0  0  0  0  0  0  0  0  0  0  0  0
    5.8824   -1.0748   25.6867 C   0  0  0  0  0  0  0  0  0  0  0  0
    5.6291    0.3826   25.9348 C   0  0  0  0  0  0  0  0  0  0  0  0
    6.3631    1.4181   25.1354 C   0  0  0  0  0  0  0  0  0  0  0  0
    7.3502    0.9962   24.0878 C   0  0  0  0  0  0  0  0  0  0  0  0
    7.6034   -0.4613   23.8396 C   0  0  0  0  0  0  0  0  0  0  0  0
    7.9319    0.7404   23.4706 C   0  0  0  0  0  0  0  0  0  0  0  0
    7.8885    0.5818   23.5193 C   0  0  0  0  0  0  0  0  0  0  0  0
    8.2170    1.7834   23.1503 N   0  0  0  0  0  0  0  0  0  0  0  0
    8.7918    0.3298   22.5586 N   0  0  0  0  0  0  0  0  0  0  0  0
    8.7004   -1.1626   22.6790 N   0  0  0  0  0  0  0  0  0  0  0  0
    9.5809   -1.9456   21.7507 N   0  0  0  0  0  0  0  0  0  0  0  0
    9.2115   -2.0820   20.3034 C   0  0  0  0  0  0  0  0  0  0  0  0
    7.9614   -1.4354   19.7842 O   0  0  0  0  0  0  0  0  0  0  0  0
   10.0920   -2.8650   19.3752 N   0  0  0  0  0  0  0  0  0  0  0  0
   11.2661   -2.2022   18.7179 N   0  0  0  0  0  0  0  0  0  0  0  0
   12.1467   -2.9853   17.7897 C   0  0  0  0  0  0  0  0  0  0  0  0
   13.2177   -2.2873   17.0050 O   0  0  0  0  0  0  0  0  0  0  0  0
   11.9561   -4.4662   17.6462 N   0  0  0  0  0  0  0  0  0  0  0  0
   12.8366   -5.2492   16.7180 C   0  0  0  0  0  0  0  0  0  0  0  0
   14.1792   -5.7291   17.1843 C   0  0  0  0  0  0  0  0  0  0  0  0
   15.0597   -6.5121   16.2561 C   0  0  0  0  0  0  0  0  0  0  0  0
   14.5978   -6.8151   14.8615 C   0  0  0  0  0  0  0  0  0  0  0  0
   13.2553   -6.3351   14.3952 C   0  0  0  0  0  0  0  0  0  0  0  0
   12.3747   -5.5522   15.3234 C   0  0  0  0  0  0  0  0  0  0  0  0
   11.0323   -5.0722   14.8571 C   0  0  0  0  0  0  0  0  0  0  0  0
   10.4775   -5.5515   13.5485 C   0  0  0  0  0  0  0  0  0  0  0  0
    9.4620   -6.6551   13.5235 N   0  0  0  0  0  0  0  0  0  0  0  0
    9.5288   -7.7119   12.4611 N   0  0  0  0  0  0  0  0  0  0  0  0
  1  2  2  0
  2  3  1  0
  2  4  1  0
  4  5  1  0
  5  6  2  0
  6  7  1  0
  7  8  2  0
  8  9  1  0
  9 10  2  0
 10 11  1  0
 11 12  1  0
 12 13  1  0
 13 14  1  0
 14 15  1  0
 15 16  1  0
 16 17  1  0
 17 18  2  0
 17 19  1  0
 19 20  2  3
 20 21  1  0
 21 22  2  0
 21 23  1  0
 23 24  1  0
 24 25  2  0
 25 26  1  0
 26 27  2  0
 27 28  1  0
 28 29  2  0
 29 30  1  0
 30 31  1  0
 31 32  1  0
 32 33  2  0
 14  3  1  0
 15  4  1  0
 10  5  1  0
 13  9  1  0
 29 24  1  0
M  END
>  <docking_score>  (3) 
-6.649

$$$$
