
     RDKit          3D

 23 24  0  0  0  0  0  0  0  0999 V2000
   16.7353   -4.0479   -1.6596 C   0  0  0  0  0  0  0  0  0  0  0  0
   16.7758   -3.2263   -2.9319 C   0  0  1  0  0  0  0  0  0  0  0  0
   17.0181   -1.7618   -2.6579 C   0  0  0  0  0  0  0  0  0  0  0  0
   18.3128   -1.5407   -1.9262 C   0  0  2  0  0  0  0  0  0  0  0  0
   19.2432   -0.8227   -2.6736 O   0  0  0  0  0  0  0  0  0  0  0  0
   18.9227   -2.8768   -1.6038 C   0  0  2  0  0  0  0  0  0  0  0  0
   20.1187   -2.7302   -0.9173 O   0  0  0  0  0  0  0  0  0  0  0  0
   19.1966   -3.6850   -2.8442 C   0  0  1  0  0  0  0  0  0  0  0  0
   19.6137   -4.9623   -2.4659 O   0  0  0  0  0  0  0  0  0  0  0  0
   17.9641   -3.7400   -3.7354 C   0  0  1  0  0  0  0  0  0  0  0  0
   17.7671   -5.0970   -4.1830 N   0  0  0  0  0  0  0  0  0  0  0  0
   17.5475   -5.0509   -5.6175 C   0  0  1  0  0  0  0  0  0  0  0  0
   18.7775   -5.6086   -6.2776 C   0  0  2  0  0  0  0  0  0  0  0  0
   19.8861   -4.5962   -6.3454 C   0  0  0  0  0  0  0  0  0  0  0  0
   18.4442   -6.1222   -7.5395 O   0  0  0  0  0  0  0  0  0  0  0  0
   18.7062   -7.4997   -7.4663 C   0  0  0  0  0  3  0  0  0  0  0  0
   18.4071   -7.9109   -6.1588 O   0  0  0  0  0  0  0  0  0  0  0  0
   17.0631   -8.2271   -6.0072 C   0  0  1  0  0  0  0  0  0  0  0  0
   16.8833   -9.4839   -5.4500 O   0  0  0  0  0  0  0  0  0  0  0  0
   16.3846   -7.1999   -5.1382 C   0  0  2  0  0  0  0  0  0  0  0  0
   15.1153   -7.6055   -4.7586 O   0  0  0  0  0  0  0  0  0  0  0  0
   16.3255   -5.8856   -5.9042 C   0  0  1  0  0  0  0  0  0  0  0  0
   15.2116   -5.1674   -5.4458 O   0  0  0  0  0  0  0  0  0  0  0  0
  2  1  1  1
  2  3  1  0
  3  4  1  0
  4  5  1  6
  4  6  1  0
  6  7  1  6
  6  8  1  0
  8  9  1  1
  8 10  1  0
 10 11  1  1
 12 11  1  1
 12 13  1  0
 13 14  1  6
 13 15  1  0
 15 16  1  0
 16 17  1  0
 17 18  1  0
 18 19  1  1
 18 20  1  0
 20 21  1  6
 20 22  1  0
 22 23  1  1
 10  2  1  0
 22 12  1  0
M  RAD  1  16   2
M  END
>  <docking_score>  (1) 
-4.8860000000000001

$$$$

     RDKit          3D

 23 24  0  0  0  0  0  0  0  0999 V2000
   18.6901   -6.6942   -3.5402 C   0  0  0  0  0  0  0  0  0  0  0  0
   19.0397   -6.0719   -4.8767 C   0  0  1  0  0  0  0  0  0  0  0  0
   19.7743   -7.0335   -5.7790 C   0  0  0  0  0  0  0  0  0  0  0  0
   18.9654   -8.2724   -6.0461 C   0  0  2  0  0  0  0  0  0  0  0  0
   18.6044   -8.4073   -7.3844 O   0  0  0  0  0  0  0  0  0  0  0  0
   17.6989   -8.2090   -5.2379 C   0  0  2  0  0  0  0  0  0  0  0  0
   16.9173   -9.3366   -5.4402 O   0  0  0  0  0  0  0  0  0  0  0  0
   16.8690   -7.0018   -5.5853 C   0  0  1  0  0  0  0  0  0  0  0  0
   15.7951   -6.9234   -4.6970 O   0  0  0  0  0  0  0  0  0  0  0  0
   17.7156   -5.7374   -5.5524 C   0  0  1  0  0  0  0  0  0  0  0  0
   16.9947   -4.7064   -4.8468 N   0  0  0  0  0  0  0  0  0  0  0  0
   16.9987   -3.5235   -5.6887 C   0  0  1  0  0  0  0  0  0  0  0  0
   15.5734   -3.2437   -6.0758 C   0  0  2  0  0  0  0  0  0  0  0  0
   15.1137   -4.1272   -7.2013 C   0  0  0  0  0  0  0  0  0  0  0  0
   15.4231   -1.8806   -6.3702 O   0  0  0  0  0  0  0  0  0  0  0  0
   14.5282   -1.3844   -5.4087 C   0  0  0  0  0  3  0  0  0  0  0  0
   14.7700   -2.0826   -4.2162 O   0  0  0  0  0  0  0  0  0  0  0  0
   15.7877   -1.5018   -3.4703 C   0  0  1  0  0  0  0  0  0  0  0  0
   15.4010   -1.2600   -2.1610 O   0  0  0  0  0  0  0  0  0  0  0  0
   17.0025   -2.3935   -3.4699 C   0  0  2  0  0  0  0  0  0  0  0  0
   17.9448   -1.9777   -2.5431 O   0  0  0  0  0  0  0  0  0  0  0  0
   17.5923   -2.4032   -4.8733 C   0  0  1  0  0  0  0  0  0  0  0  0
   18.9683   -2.6502   -4.7627 O   0  0  0  0  0  0  0  0  0  0  0  0
  2  1  1  1
  2  3  1  0
  3  4  1  0
  4  5  1  6
  4  6  1  0
  6  7  1  6
  6  8  1  0
  8  9  1  1
  8 10  1  0
 10 11  1  1
 12 11  1  1
 12 13  1  0
 13 14  1  6
 13 15  1  0
 15 16  1  0
 16 17  1  0
 17 18  1  0
 18 19  1  1
 18 20  1  0
 20 21  1  1
 20 22  1  0
 22 23  1  1
 10  2  1  0
 22 12  1  0
M  RAD  1  16   2
M  END
>  <docking_score>  (2) 
-4.8559999999999999

$$$$

     RDKit          3D

 23 24  0  0  0  0  0  0  0  0999 V2000
   16.3210   -4.7194   -2.6000 C   0  0  0  0  0  0  0  0  0  0  0  0
   17.3039   -5.1778   -3.6579 C   0  0  1  0  0  0  0  0  0  0  0  0
   16.7299   -6.2604   -4.5392 C   0  0  0  0  0  0  0  0  0  0  0  0
   15.4809   -5.8021   -5.2395 C   0  0  2  0  0  0  0  0  0  0  0  0
   15.6251   -5.7424   -6.6235 O   0  0  0  0  0  0  0  0  0  0  0  0
   15.1338   -4.4203   -4.7587 C   0  0  2  0  0  0  0  0  0  0  0  0
   13.9794   -3.9519   -5.3682 O   0  0  0  0  0  0  0  0  0  0  0  0
   16.2369   -3.4339   -5.0359 C   0  0  1  0  0  0  0  0  0  0  0  0
   15.9156   -2.2179   -4.4303 O   0  0  0  0  0  0  0  0  0  0  0  0
   17.5744   -3.9679   -4.5438 C   0  0  1  0  0  0  0  0  0  0  0  0
   18.2659   -2.9212   -3.8317 N   0  0  0  0  0  0  0  0  0  0  0  0
   19.5813   -2.7872   -4.4316 C   0  0  1  0  0  0  0  0  0  0  0  0
   19.6430   -1.4317   -5.0787 C   0  0  2  0  0  0  0  0  0  0  0  0
   18.9562   -1.4161   -6.4153 C   0  0  0  0  0  0  0  0  0  0  0  0
   20.9774   -1.0069   -5.1578 O   0  0  0  0  0  0  0  0  0  0  0  0
   21.0549    0.1420   -4.3544 C   0  0  0  0  0  3  0  0  0  0  0  0
   20.1742   -0.0431   -3.2783 O   0  0  0  0  0  0  0  0  0  0  0  0
   20.7703   -0.7335   -2.2307 C   0  0  1  0  0  0  0  0  0  0  0  0
   20.6317   -0.0678   -1.0224 O   0  0  0  0  0  0  0  0  0  0  0  0
   20.1678   -2.1094   -2.1085 C   0  0  2  0  0  0  0  0  0  0  0  0
   20.5511   -2.7357   -0.9336 O   0  0  0  0  0  0  0  0  0  0  0  0
   20.5899   -2.9285   -3.3203 C   0  0  1  0  0  0  0  0  0  0  0  0
   20.6106   -4.2792   -2.9436 O   0  0  0  0  0  0  0  0  0  0  0  0
  2  1  1  1
  2  3  1  0
  3  4  1  0
  4  5  1  6
  4  6  1  0
  6  7  1  6
  6  8  1  0
  8  9  1  1
  8 10  1  0
 10 11  1  1
 12 11  1  1
 12 13  1  0
 13 14  1  6
 13 15  1  0
 15 16  1  0
 16 17  1  0
 17 18  1  0
 18 19  1  1
 18 20  1  0
 20 21  1  1
 20 22  1  0
 22 23  1  1
 10  2  1  0
 22 12  1  0
M  RAD  1  16   2
M  END
>  <docking_score>  (3) 
-4.7380000000000004

$$$$
