
     RDKit          3D

 25 27  0  0  0  0  0  0  0  0999 V2000
   16.6125   -1.7834   -5.3395 C   0  0  0  0  0  0  0  0  0  0  0  0
   15.6401   -1.2854   -6.4038 C   0  0  2  0  0  0  0  0  0  0  0  0
   14.6646   -0.3270   -5.7410 C   0  0  0  0  0  0  0  0  0  0  0  0
   14.8902   -2.4534   -6.9995 C   0  0  0  0  0  0  0  0  0  0  0  0
   15.8373   -3.5410   -7.4191 C   0  0  0  0  0  0  0  0  0  0  0  0
   15.2750   -4.9277   -7.1879 C   0  0  0  0  0  0  0  0  0  0  0  0
   15.6450   -5.4218   -5.7968 C   0  0  1  0  0  0  0  0  0  0  0  0
   14.6033   -6.4192   -5.3051 C   0  0  0  0  0  0  0  0  0  0  0  0
   17.0138   -6.0462   -5.9048 C   0  0  0  0  0  3  0  0  0  0  0  0
   17.3700   -6.8301   -4.6666 C   0  0  0  0  0  0  0  0  0  0  0  0
   18.1912   -5.9686   -3.7287 C   0  0  0  0  0  0  0  0  0  0  0  0
   19.6417   -5.9061   -4.1203 C   0  0  2  0  0  0  0  0  0  0  0  0
   20.4403   -7.0666   -3.5558 C   0  0  0  0  0  0  0  0  0  0  0  0
   20.3049   -4.6321   -3.6798 C   0  0  0  0  0  0  0  0  0  0  0  0
   19.3257   -3.5332   -3.3653 C   0  0  1  0  0  0  0  0  0  0  0  0
   18.5659   -3.8128   -2.0969 C   0  0  0  0  0  0  0  0  0  0  0  0
   19.3287   -3.3522   -0.8621 C   0  0  0  0  0  0  0  0  0  0  0  0
   20.7967   -3.4486   -1.1799 C   0  0  0  0  0  0  0  0  0  0  0  0
   21.2150   -2.3941   -2.1628 C   0  0  2  0  0  0  0  0  0  0  0  0
   21.3708   -1.0567   -1.4499 C   0  0  0  0  0  0  0  0  0  0  0  0
   20.0880   -2.2426   -3.1723 C   0  0  0  0  0  3  0  0  0  0  0  0
   20.3404   -1.2223   -4.3494 S   0  0  2  0  0  0  0  0  0  0  0  0
   19.9687    0.0055   -5.1072 N   0  0  0  0  0  0  0  0  0  0  0  0
   18.5800   -0.4676   -4.6222 C   0  0  1  0  0  0  0  0  0  0  0  0
   17.9996   -1.3712   -5.6983 C   0  0  0  0  0  3  0  0  0  0  0  0
  1  2  1  0
  2  3  1  1
  2  4  1  0
  4  5  1  0
  5  6  1  0
  6  7  1  0
  7  8  1  6
  7  9  1  0
  9 10  1  0
 10 11  1  0
 11 12  1  0
 12 13  1  1
 12 14  1  0
 15 14  1  1
 15 16  1  0
 16 17  1  0
 17 18  1  0
 18 19  1  0
 19 20  1  1
 15 21  1  0
 21 22  1  0
 22 23  1  1
 23 24  1  0
 24 25  1  6
 25  1  1  0
 21 19  1  0
 24 22  1  0
M  RAD  3   9   2  21   2  25   2
M  END
>  <docking_score>  (1) 
-6.1109999999999998

$$$$

     RDKit          3D

 25 27  0  0  0  0  0  0  0  0999 V2000
   19.0722   -3.6599   -3.2878 C   0  0  0  0  0  0  0  0  0  0  0  0
   20.1844   -4.1533   -2.3681 C   0  0  2  0  0  0  0  0  0  0  0  0
   21.3739   -3.2202   -2.5225 C   0  0  0  0  0  0  0  0  0  0  0  0
   20.5799   -5.5598   -2.7512 C   0  0  0  0  0  0  0  0  0  0  0  0
   19.3712   -6.4437   -2.8686 C   0  0  0  0  0  0  0  0  0  0  0  0
   19.4945   -7.4581   -3.9858 C   0  0  0  0  0  0  0  0  0  0  0  0
   18.9478   -6.8821   -5.2841 C   0  0  1  0  0  0  0  0  0  0  0  0
   19.6340   -7.5402   -6.4747 C   0  0  0  0  0  0  0  0  0  0  0  0
   17.4608   -7.1352   -5.2822 C   0  0  0  0  0  3  0  0  0  0  0  0
   16.8477   -6.8756   -6.6355 C   0  0  0  0  0  0  0  0  0  0  0  0
   16.2824   -5.4705   -6.6851 C   0  0  0  0  0  0  0  0  0  0  0  0
   14.9284   -5.3678   -6.0392 C   0  0  2  0  0  0  0  0  0  0  0  0
   13.8058   -5.7212   -6.9974 C   0  0  0  0  0  0  0  0  0  0  0  0
   14.6521   -3.9967   -5.4907 C   0  0  0  0  0  0  0  0  0  0  0  0
   15.8985   -3.1768   -5.2915 C   0  0  1  0  0  0  0  0  0  0  0  0
   16.4984   -2.7507   -6.6041 C   0  0  0  0  0  0  0  0  0  0  0  0
   15.8612   -1.4732   -7.1341 C   0  0  0  0  0  0  0  0  0  0  0  0
   14.4413   -1.4402   -6.6360 C   0  0  0  0  0  0  0  0  0  0  0  0
   14.3846   -1.1760   -5.1595 C   0  0  2  0  0  0  0  0  0  0  0  0
   14.6022    0.3080   -4.8921 C   0  0  0  0  0  0  0  0  0  0  0  0
   15.5410   -1.9277   -4.5196 C   0  0  0  0  0  3  0  0  0  0  0  0
   15.6397   -1.8451   -2.9468 S   0  0  2  0  0  0  0  0  0  0  0  0
   16.3807   -1.4735   -1.7087 N   0  0  0  0  0  0  0  0  0  0  0  0
   17.5523   -1.8136   -2.6570 C   0  0  1  0  0  0  0  0  0  0  0  0
   17.8799   -3.2869   -2.4742 C   0  0  0  0  0  3  0  0  0  0  0  0
  1  2  1  0
  2  3  1  6
  2  4  1  0
  4  5  1  0
  5  6  1  0
  6  7  1  0
  7  8  1  6
  7  9  1  0
  9 10  1  0
 10 11  1  0
 11 12  1  0
 12 13  1  6
 12 14  1  0
 15 14  1  6
 15 16  1  0
 16 17  1  0
 17 18  1  0
 18 19  1  0
 19 20  1  6
 15 21  1  0
 21 22  1  0
 22 23  1  6
 23 24  1  0
 24 25  1  1
 25  1  1  0
 21 19  1  0
 24 22  1  0
M  RAD  3   9   2  21   2  25   2
M  END
>  <docking_score>  (2) 
-5.806

$$$$

     RDKit          3D

 25 27  0  0  0  0  0  0  0  0999 V2000
   18.8919   -5.7075   -4.4715 C   0  0  0  0  0  0  0  0  0  0  0  0
   18.7343   -7.2074   -4.2443 C   0  0  2  0  0  0  0  0  0  0  0  0
   19.9908   -7.8965   -4.7502 C   0  0  0  0  0  0  0  0  0  0  0  0
   17.5287   -7.7160   -4.9988 C   0  0  0  0  0  0  0  0  0  0  0  0
   16.3215   -6.8687   -4.7147 C   0  0  0  0  0  0  0  0  0  0  0  0
   15.4283   -6.6982   -5.9253 C   0  0  0  0  0  0  0  0  0  0  0  0
   15.8491   -5.4723   -6.7230 C   0  0  1  0  0  0  0  0  0  0  0  0
   15.4694   -5.6496   -8.1879 C   0  0  0  0  0  0  0  0  0  0  0  0
   15.1534   -4.2870   -6.1016 C   0  0  0  0  0  3  0  0  0  0  0  0
   15.2545   -3.0597   -6.9724 C   0  0  0  0  0  0  0  0  0  0  0  0
   16.4201   -2.2023   -6.5225 C   0  0  0  0  0  0  0  0  0  0  0  0
   16.0838   -1.3452   -5.3337 C   0  0  2  0  0  0  0  0  0  0  0  0
   15.4336   -0.0340   -5.7355 C   0  0  0  0  0  0  0  0  0  0  0  0
   17.2871   -1.0248   -4.4932 C   0  0  0  0  0  0  0  0  0  0  0  0
   18.4424   -1.9591   -4.7333 C   0  0  1  0  0  0  0  0  0  0  0  0
   19.0718   -1.7291   -6.0806 C   0  0  0  0  0  0  0  0  0  0  0  0
   20.1088   -0.6146   -6.0426 C   0  0  0  0  0  0  0  0  0  0  0  0
   19.6906    0.3506   -4.9662 C   0  0  0  0  0  0  0  0  0  0  0  0
   19.8792   -0.2385   -3.5985 C   0  0  2  0  0  0  0  0  0  0  0  0
   21.3497   -0.1707   -3.2058 C   0  0  0  0  0  0  0  0  0  0  0  0
   19.4980   -1.7081   -3.6812 C   0  0  0  0  0  3  0  0  0  0  0  0
   19.5583   -2.5201   -2.3295 S   0  0  2  0  0  0  0  0  0  0  0  0
   20.1006   -3.6390   -1.5086 N   0  0  0  0  0  0  0  0  0  0  0  0
   20.1645   -4.2590   -2.9225 C   0  0  1  0  0  0  0  0  0  0  0  0
   18.8571   -4.9975   -3.1610 C   0  0  0  0  0  3  0  0  0  0  0  0
  1  2  1  0
  2  3  1  6
  2  4  1  0
  4  5  1  0
  5  6  1  0
  6  7  1  0
  7  8  1  6
  7  9  1  0
  9 10  1  0
 10 11  1  0
 11 12  1  0
 12 13  1  6
 12 14  1  0
 15 14  1  1
 15 16  1  0
 16 17  1  0
 17 18  1  0
 18 19  1  0
 19 20  1  6
 15 21  1  0
 21 22  1  0
 22 23  1  1
 23 24  1  0
 24 25  1  1
 25  1  1  0
 21 19  1  0
 24 22  1  0
M  RAD  3   9   2  21   2  25   2
M  END
>  <docking_score>  (3) 
-5.4100000000000001

$$$$
