
     RDKit          3D

 70 74  0  0  0  0  0  0  0  0999 V2000
    2.2580    5.1797    7.5637 C   0  0  0  0  0  0  0  0  0  0  0  0
    2.6081    6.4891    6.9202 C   0  0  0  0  0  3  0  0  0  0  0  0
    3.6889    6.3516    5.8627 C   0  0  2  0  0  0  0  0  0  0  0  0
    4.8706    7.1773    6.3529 C   0  0  2  0  0  0  0  0  0  0  0  0
    4.4301    8.2112    7.1936 O   0  0  0  0  0  0  0  0  0  0  0  0
    5.5106    7.8606    5.1485 C   0  0  2  0  0  0  0  0  0  0  0  0
    6.7325    8.4042    5.5322 O   0  0  0  0  0  0  0  0  0  0  0  0
    4.5897    8.9093    4.5788 C   0  0  0  0  0  3  0  0  0  0  0  0
    3.1854    8.3612    4.5642 C   0  0  1  0  0  0  0  0  0  0  0  0
    2.4400    8.8966    3.5187 O   0  0  0  0  0  0  0  0  0  0  0  0
    3.2274    6.8502    4.5247 C   0  0  1  0  0  0  0  0  0  0  0  0
    4.0946    6.4027    3.4393 C   0  0  0  0  0  3  0  0  0  0  0  0
    3.6018    6.2763    2.0659 C   0  0  1  0  0  0  0  0  0  0  0  0
    3.1640    4.9220    1.6417 C   0  0  0  0  0  0  0  0  0  0  0  0
    3.5763    3.9146    2.4649 O   0  0  0  0  0  0  0  0  0  0  0  0
    2.5724    3.5758    3.3705 C   0  0  0  0  0  0  0  0  0  0  0  0
    2.6410    7.2588    1.7567 O   0  0  0  0  0  0  0  0  0  0  0  0
    2.5874    7.5249    0.4876 O   0  0  0  0  0  0  0  0  0  0  0  0
    3.5593    8.4976    0.1366 C   0  0  1  0  0  0  0  0  0  0  0  0
    3.0713    9.7841    0.3444 O   0  0  0  0  0  0  0  0  0  0  0  0
    4.7405    8.1835    1.0465 C   0  0  2  0  0  0  0  0  0  0  0  0
    6.0183    8.7674    0.5248 C   0  0  0  0  0  2  0  0  0  0  0  0
    4.8027    6.6800    1.1516 C   0  0  1  0  0  0  0  0  0  0  0  0
    5.9870    6.2282    1.7402 O   0  0  0  0  0  0  0  0  0  0  0  0
    6.3878    5.1076    1.2148 O   0  0  0  0  0  0  0  0  0  0  0  0
    6.3269    5.0434   -0.0812 O   0  0  0  0  0  0  0  0  0  0  0  0
    7.5771    5.2590   -0.6770 C   0  0  0  0  0  3  0  0  0  0  0  0
    8.3329    4.1366   -0.4887 O   0  0  0  0  0  0  0  0  0  0  0  0
    8.5217    3.3281   -1.5646 C   0  0  2  0  0  0  0  0  0  0  0  0
    9.3814    2.1648   -1.1103 O   0  0  0  0  0  0  0  0  0  0  0  0
    9.7495    2.9204   -2.2157 C   0  0  2  0  0  0  0  0  0  0  0  0
   10.9705    3.6054   -2.4473 C   0  0  0  0  0  0  0  0  0  0  0  0
   12.2220    2.8549   -2.5825 C   0  0  2  0  0  0  0  0  0  0  0  0
   13.5158    3.6021   -3.5382 S   0  0  0  0  0  0  0  0  0  0  0  0
   12.1122    1.4917   -2.8738 O   0  0  0  0  0  0  0  0  0  0  0  0
   13.1378    0.8251   -3.5717 C   0  0  0  0  0  0  0  0  0  0  0  0
   14.2134    1.5032   -3.9167 C   0  0  0  0  0  0  0  0  0  0  0  0
   15.2804    0.7749   -4.6539 C   0  0  1  0  0  0  0  0  0  0  0  0
   16.4904    1.9854   -5.2506 S   0  0  0  0  0  0  0  0  0  0  0  0
   17.7223    1.0969   -6.2420 C   0  0  0  0  0  0  0  0  0  0  0  0
   19.0079    1.0794   -5.4580 C   0  0  2  0  0  0  0  0  0  0  0  0
   18.8372    0.2074   -4.3893 O   0  0  0  0  0  0  0  0  0  0  0  0
   19.4751    2.4436   -5.0582 C   0  0  0  0  0  3  0  0  0  0  0  0
   19.7105    3.2762   -6.1462 O   0  0  0  0  0  0  0  0  0  0  0  0
   15.9397   -0.1700   -3.9033 O   0  0  0  0  0  0  0  0  0  0  0  0
   14.5682    0.0938   -5.8169 C   0  0  2  0  0  0  0  0  0  0  0  0
   13.8991    1.1146   -6.5085 O   0  0  0  0  0  0  0  0  0  0  0  0
   13.5541   -0.8521   -5.2951 C   0  0  1  0  0  0  0  0  0  0  0  0
   13.0368   -0.5986   -3.9207 C   0  0  1  0  0  0  0  0  0  0  0  0
   13.7212   -1.4070   -2.8439 C   0  0  0  0  0  3  0  0  0  0  0  0
   13.7897   -0.6571   -1.5190 C   0  0  0  0  0  0  0  0  0  0  0  0
   14.9700   -1.0838   -0.9046 O   0  0  0  0  0  0  0  0  0  0  0  0
   15.8352   -0.1328   -0.7492 O   0  0  0  0  0  0  0  0  0  0  0  0
   17.4468   -0.9132   -1.0070 S   0  0  2  0  0  0  0  0  0  0  0  0
   18.7228    0.2396   -1.0741 O   0  0  0  0  0  0  0  0  0  0  0  0
   17.3291   -2.2858   -1.6060 C   0  0  0  0  0  3  0  0  0  0  0  0
   17.7751   -2.5542   -2.9191 O   0  0  0  0  0  0  0  0  0  0  0  0
   17.3473   -3.8230   -3.3148 C   0  0  0  0  0  0  0  0  0  0  0  0
   16.6959   -3.7848   -4.6795 C   0  0  0  0  0  3  0  0  0  0  0  0
   12.5165   -1.2376   -6.2940 C   0  0  0  0  0  0  0  0  0  0  0  0
   12.7640   -2.5460   -6.7487 O   0  0  0  0  0  0  0  0  0  0  0  0
   12.7189   -3.3800   -5.7394 O   0  0  0  0  0  0  0  0  0  0  0  0
   13.9739   -3.7507   -5.3220 C   0  0  0  0  0  0  0  0  0  0  0  0
   14.7540   -4.0885   -6.4263 O   0  0  0  0  0  0  0  0  0  0  0  0
   15.4146   -5.2783   -6.2264 C   0  0  2  0  0  0  0  0  0  0  0  0
   14.5062   -6.2799   -5.9146 O   0  0  0  0  0  0  0  0  0  0  0  0
   16.4825   -5.2010   -5.1591 C   0  0  1  0  0  0  0  0  0  0  0  0
   17.6872   -5.6841   -5.6329 O   0  0  0  0  0  0  0  0  0  0  0  0
   18.4717   -6.2671   -4.6441 C   0  0  0  0  0  3  0  0  0  0  0  0
   18.1743   -7.7621   -4.5556 C   0  0  0  0  0  2  0  0  0  0  0  0
  1  2  1  0
  3  2  1  1
  3  4  1  0
  4  5  1  1
  4  6  1  0
  6  7  1  1
  6  8  1  0
  8  9  1  0
  9 10  1  6
  9 11  1  0
 11 12  1  6
 13 12  1  1
 13 14  1  0
 14 15  1  0
 15 16  1  0
 13 17  1  0
 17 18  1  0
 18 19  1  0
 19 20  1  1
 19 21  1  0
 21 22  1  6
 21 23  1  0
 23 24  1  1
 24 25  1  0
 25 26  1  0
 26 27  1  0
 27 28  1  0
 29 28  1  1
 29 30  1  0
 29 31  1  0
 31 32  1  1
 32 33  1  0
 33 34  1  6
 33 35  1  0
 35 36  1  0
 36 37  2  0
 37 38  1  0
 38 39  1  0
 39 40  1  0
 40 41  1  0
 41 42  1  1
 41 43  1  0
 43 44  1  0
 38 45  1  1
 38 46  1  0
 46 47  1  6
 46 48  1  0
 48 49  1  0
 49 50  1  1
 50 51  1  0
 51 52  1  0
 52 53  1  0
 53 54  1  0
 54 55  1  6
 54 56  1  0
 56 57  1  0
 57 58  1  0
 58 59  1  0
 48 60  1  6
 60 61  1  0
 61 62  1  0
 62 63  1  0
 63 64  1  0
 64 65  1  0
 65 66  1  1
 65 67  1  0
 67 68  1  6
 68 69  1  0
 69 70  1  0
 11  3  1  0
 23 13  1  0
 31 30  1  0
 49 36  1  0
 67 59  1  0
M  RAD  8   2   2   8   2  12   2  22   3  27   2  43   2  50   2  56   2
M  RAD  3  59   2  69   2  70   3
M  END
>  <docking_score>  (1) 
65.111999999999995

$$$$
