
     RDKit          3D

 31 34  0  0  0  0  0  0  0  0999 V2000
    0.4893   -1.4199    0.9475 O   0  0  0  0  0  0  0  0  0  0  0  0
   -0.0506   -0.5232    0.2711 C   0  0  0  0  0  0  0  0  0  0  0  0
   -1.3103   -0.2493   -0.3157 N   0  0  0  0  0  0  0  0  0  0  0  0
   -2.5664   -0.9162   -0.2779 C   0  0  0  0  0  0  0  0  0  0  0  0
   -3.2541   -1.2259   -1.4083 C   0  0  0  0  0  0  0  0  0  0  0  0
   -4.4857   -1.8846   -1.3309 C   0  0  0  0  0  0  0  0  0  0  0  0
   -5.0448   -2.2425   -0.1095 C   0  0  0  0  0  0  0  0  0  0  0  0
   -6.2337   -2.8797   -0.0328 F   0  0  0  0  0  0  0  0  0  0  0  0
   -4.3453   -1.9269    1.0335 C   0  0  0  0  0  0  0  0  0  0  0  0
   -5.0395   -2.3714    2.5758 Cl  0  0  0  0  0  0  0  0  0  0  0  0
   -3.1283   -1.2753    0.9416 C   0  0  0  0  0  0  0  0  0  0  0  0
   -0.8829    0.9712   -0.9868 C   0  0  1  0  0  0  0  0  0  0  0  0
   -1.5506    2.2043   -0.5440 C   0  0  0  0  0  0  0  0  0  0  0  0
   -2.9143    2.3055   -0.3484 C   0  0  0  0  0  0  0  0  0  0  0  0
   -3.4127    3.5216    0.0686 C   0  0  0  0  0  0  0  0  0  0  0  0
   -2.6048    4.6004    0.2862 C   0  0  0  0  0  0  0  0  0  0  0  0
   -1.2463    4.4738    0.0832 C   0  0  0  0  0  0  0  0  0  0  0  0
   -0.7749    3.2956   -0.3191 N   0  0  0  0  0  0  0  0  0  0  0  0
    0.4361    0.7694   -0.2645 C   0  0  2  0  0  0  0  0  0  0  0  0
    1.6343    0.6458   -1.1839 C   0  0  0  0  0  0  0  0  0  0  0  0
    2.7506    0.0210   -0.4335 C   0  0  1  0  0  0  0  0  0  0  0  0
    3.9675   -0.1803   -1.1259 N   0  0  0  0  0  0  0  0  0  0  0  0
    4.4195   -1.4709   -1.2573 N   0  0  0  0  0  0  0  0  0  0  0  0
    4.5411   -2.1435   -0.0466 N   0  0  0  0  0  0  0  0  0  0  0  0
    5.0994   -1.8121    1.2428 C   0  0  0  0  0  0  0  0  0  0  0  0
    4.7294   -0.8236    2.0768 C   0  0  0  0  0  0  0  0  0  0  0  0
    5.4475   -0.7654    3.2212 F   0  0  0  0  0  0  0  0  0  0  0  0
    3.6866    0.2273    2.0008 C   0  0  0  0  0  0  0  0  0  0  0  0
    2.9128    0.5239    0.9514 C   0  0  0  0  0  0  0  0  0  0  0  0
    3.7948    0.3546   -2.4872 C   0  0  0  0  0  0  0  0  0  0  0  0
    4.9361    0.1965   -3.2280 F   0  0  0  0  0  0  0  0  0  0  0  0
  1  2  2  0
  2  3  1  0
  3  4  1  0
  4  5  2  0
  5  6  1  0
  6  7  2  0
  7  8  1  0
  7  9  1  0
  9 10  1  0
  9 11  2  0
  3 12  1  0
 12 13  1  1
 13 14  2  0
 14 15  1  0
 15 16  2  0
 16 17  1  0
 17 18  2  0
 12 19  1  0
 19 20  1  6
 21 20  1  6
 21 22  1  0
 22 23  1  0
 23 24  1  0
 24 25  1  0
 25 26  2  3
 26 27  1  0
 26 28  1  0
 28 29  2  3
 22 30  1  0
 30 31  1  0
 19  2  1  0
 11  4  1  0
 18 13  1  0
 29 21  1  0
M  END
>  <fragInfo>  (1) 
21 22 23 24 25 26 27 28 29
1 2 3 12 19
4 5 6 7 8 9 10 11
13 14 15 16 17 18
20
30 31


>  <torsionInfo>  (1) 
20 21 4 0
22 30 0 5
3 4 1 2
12 13 1 3
19 20 1 4


>  <atomInfo>  (1) 
1  -0.2740672OA
2  0.23283230C 
3  -0.3021686N 
4  0.04611626A 
5  -0.0352702A 
6  -0.0226871A 
7  0.14143861A 
8  -0.2053590F 
9  0.07835147A 
10 -0.0810568Cl
11 -0.0165781A 
12 0.09061115C 
13 0.06411161A 
14 -0.0383809A 
15 -0.0588459A 
16 -0.0437944A 
17 0.02716004A 
18 -0.2590632NA
19 0.06691269C 
20 -0.0182534C 
21 0.04811914C 
22 -0.1893650NA
23 -0.1670992NA
24 -0.3122614N 
25 0.04967500C 
26 0.13953627C 
27 -0.2053612F 
28 -0.0271424C 
29 -0.0628733C 
30 0.15680364C 
31 -0.2323830F 


$$$$
