
     RDKit          3D

 22 24  0  0  0  0  0  0  0  0999 V2000
   -0.3500    1.0942    0.5166 O   0  0  0  0  0  0  0  0  0  0  0  0
   -0.0053    0.0757   -0.1401 C   0  0  0  0  0  0  0  0  0  0  0  0
   -1.0003   -0.6045   -0.8552 N   0  0  0  0  0  0  0  0  0  0  0  0
   -2.3475   -0.1407   -0.8246 C   0  0  0  0  0  0  0  0  0  0  0  0
   -2.7154    0.9744   -0.1034 C   0  0  0  0  0  0  0  0  0  0  0  0
   -3.9981    1.4525   -0.0480 C   0  0  0  0  0  0  0  0  0  0  0  0
   -4.4472    2.8735    0.8755 Cl  0  0  0  0  0  0  0  0  0  0  0  0
   -4.9829    0.7950   -0.7445 C   0  0  0  0  0  0  0  0  0  0  0  0
   -4.6566   -0.3245   -1.4783 C   0  0  0  0  0  0  0  0  0  0  0  0
   -5.6694   -0.9344   -2.1467 F   0  0  0  0  0  0  0  0  0  0  0  0
   -3.3586   -0.7851   -1.5176 C   0  0  0  0  0  0  0  0  0  0  0  0
    1.3641   -0.3689   -0.1518 N   0  0  0  0  0  0  0  0  0  0  0  0
    2.4866    0.2206    0.5265 C   0  0  0  0  0  0  0  0  0  0  0  0
    2.6796    1.1766    1.6318 C   0  0  0  0  0  0  0  0  0  0  0  0
    3.7924    0.7524    2.5140 C   0  0  0  0  0  0  0  0  0  0  0  0
    4.9831    0.5056    0.8270 S   0  0  1  0  0  0  0  0  0  0  0  0
    3.6160   -0.2125   -0.0031 C   0  0  0  0  0  0  0  0  0  0  0  0
    3.3394   -1.1567   -1.1148 C   0  0  0  0  0  0  0  0  0  0  0  0
    1.8885   -1.5134   -0.8594 C   0  0  1  0  0  0  0  0  0  0  0  0
    1.7691   -2.7150   -0.0691 N   0  0  0  0  0  0  0  0  0  0  0  0
    2.6321   -3.5599   -0.0909 O   0  0  0  0  0  0  0  0  0  0  0  0
    4.9807    2.3952    0.3266 F   0  0  0  0  0  0  0  0  0  0  0  0
  1  2  2  0
  2  3  1  0
  3  4  1  0
  4  5  2  0
  5  6  1  0
  6  7  1  0
  6  8  2  0
  8  9  1  0
  9 10  1  0
  9 11  2  0
  2 12  1  0
 12 13  1  0
 13 14  1  0
 14 15  1  0
 15 16  1  0
 16 17  1  0
 17 18  1  0
 18 19  1  0
 19 20  1  1
 20 21  2  0
 16 22  1  6
 11  4  1  0
 19 12  1  0
 13 17  2  0
M  END
>  <fragInfo>  (1) 
12 13 14 15 16 17 18 19 22
1 2 3
4 5 6 7 8 9 10 11
20 21


>  <torsionInfo>  (1) 
2 12 1 0
19 20 0 3
3 4 1 2


>  <atomInfo>  (1) 
1  -0.2477989OA
2  0.32750101C 
3  -0.3073305N 
4  0.04678227A 
5  -0.0195454A 
6  0.04552740A 
7  -0.0841533Cl
8  -0.0074594A 
9  0.12626280A 
10 -0.2068729F 
11 -0.0024687A 
12 -0.2703292N 
13 0.03596866C 
14 -0.0013409C 
15 0.01044031C 
16 -0.0780553S 
17 0.01617064C 
18 0.02565715C 
19 0.17548352C 
20 -0.0436902NA
21 -0.1485149OA
22 -0.1878852F 


$$$$
