
     RDKit          3D

 11 11  0  0  0  0  0  0  0  0999 V2000
   -3.3684    0.4590   -1.1721 O   0  0  0  0  0  0  0  0  0  0  0  0
   -2.8854   -0.0289   -0.0988 C   0  0  0  0  0  0  0  0  0  0  0  0
   -1.4973    0.0558    0.1988 N   0  0  0  0  0  0  0  0  0  0  0  0
   -0.6746    0.7188   -0.7736 C   0  0  0  0  0  0  0  0  0  0  0  0
    0.6648    0.6608   -0.9039 C   0  0  0  0  0  0  0  0  0  0  0  0
    1.5419   -0.1252   -0.0344 C   0  0  0  0  0  0  0  0  0  0  0  0
    2.8412    0.1614   -0.0681 C   0  0  0  0  0  0  0  0  0  0  0  0
    3.2340    1.1516   -0.9014 F   0  0  0  0  0  0  0  0  0  0  0  0
   -1.1249   -0.5385    1.4364 C   0  0  0  0  0  0  0  0  0  0  0  0
    0.0806   -1.3440    1.4644 C   0  0  0  0  0  0  0  0  0  0  0  0
    1.1880   -1.1709    0.8527 N   0  0  0  0  0  0  0  0  0  0  0  0
  1  2  2  0
  2  3  1  0
  3  4  1  0
  4  5  2  0
  5  6  1  0
  6  7  2  3
  7  8  1  0
  3  9  1  0
  9 10  1  0
 10 11  2  0
 11  6  1  0
M  END
>  <fragInfo>  (1) 
3 4 5 6 7 8 9 10 11
1 2


>  <torsionInfo>  (1) 
2 3 1 0


>  <atomInfo>  (1) 
1  -0.2783056OA
2  0.21350920C 
3  -0.3162066N 
4  0.00914456C 
5  -0.0176613C 
6  0.09228501C 
7  0.11233704C 
8  -0.2131721F 
9  0.06029919C 
10 0.02495225C 
11 -0.2568802NA


$$$$
