
     RDKit          3D

 28 30  0  0  0  0  0  0  0  0999 V2000
   -1.2035   -1.7764   -1.4481 O   0  0  0  0  0  0  0  0  0  0  0  0
   -0.9100   -0.7500   -0.7066 C   0  0  0  0  0  0  0  0  0  0  0  0
    0.0308    0.0812   -1.3108 N   0  0  0  0  0  0  0  0  0  0  0  0
    0.5740   -0.2177   -2.6152 C   0  0  0  0  0  0  0  0  0  0  0  0
    1.3569    0.7791   -3.1366 C   0  0  0  0  0  0  0  0  0  0  0  0
    1.9397    0.6256   -4.3791 C   0  0  0  0  0  0  0  0  0  0  0  0
    2.9403    1.8656   -5.0868 Cl  0  0  0  0  0  0  0  0  0  0  0  0
    1.6984   -0.5534   -5.0493 C   0  0  0  0  0  0  0  0  0  0  0  0
    0.9110   -1.5718   -4.5396 C   0  0  0  0  0  0  0  0  0  0  0  0
    0.7127   -2.7118   -5.2516 F   0  0  0  0  0  0  0  0  0  0  0  0
    0.3493   -1.3741   -3.2952 C   0  0  0  0  0  0  0  0  0  0  0  0
   -1.4806   -0.5480    0.4909 N   0  0  0  0  0  0  0  0  0  0  0  0
   -2.5233   -1.3646    0.9534 C   0  0  0  0  0  0  0  0  0  0  0  0
   -2.2845   -1.7582    2.4394 C   0  0  0  0  0  0  0  0  0  0  0  0
   -3.2343   -0.5587    2.7893 C   0  0  2  0  0  0  0  0  0  0  0  0
   -4.4589   -1.0891    1.9956 C   0  0  0  0  0  0  0  0  0  0  0  0
   -3.6994   -1.8567    0.7967 C   0  0  0  0  0  0  0  0  0  0  0  0
   -2.5803    0.6815    2.2683 C   0  0  0  0  0  0  0  0  0  0  0  0
   -1.2655    0.4696    1.5159 C   0  0  0  0  0  0  0  0  0  0  0  0
   -0.1415    0.9804    1.6735 C   0  0  0  0  0  0  0  0  0  0  0  0
    0.0152    2.0138    2.7295 C   0  0  0  0  0  0  0  0  0  0  0  0
    1.2472    1.4719    3.9580 S   0  0  0  0  0  0  0  0  0  0  0  0
    1.3580    2.7795    5.1981 C   0  0  0  0  0  0  0  0  0  0  0  0
    0.1944    2.9194    5.9224 F   0  0  0  0  0  0  0  0  0  0  0  0
    1.0784    0.6325    0.9387 C   0  0  0  0  0  0  0  0  0  0  0  0
    2.1771    0.1204    1.8424 C   0  0  0  0  0  0  0  0  0  0  0  0
    3.3685   -0.2044    0.9960 C   0  0  0  0  0  0  0  0  0  0  0  0
    3.8300    0.9144    0.3107 F   0  0  0  0  0  0  0  0  0  0  0  0
  1  2  2  0
  2  3  1  0
  3  4  1  0
  4  5  2  0
  5  6  1  0
  6  7  1  0
  6  8  2  0
  8  9  1  0
  9 10  1  0
  9 11  2  0
  2 12  1  0
 12 13  1  0
 13 14  1  0
 14 15  1  0
 15 16  1  6
 16 17  1  0
 15 18  1  0
 18 19  1  0
 19 20  2  3
 20 21  1  0
 21 22  1  0
 22 23  1  0
 23 24  1  0
 20 25  1  0
 25 26  1  0
 26 27  1  0
 27 28  1  0
 11  4  1  0
 19 12  1  0
 13 17  2  0
M  END
>  <fragInfo>  (1) 
12 13 14 15 16 17 18 19 20
1 2 3
4 5 6 7 8 9 10 11
21
22
23 24
25
26
27 28


>  <torsionInfo>  (1) 
2 12 1 0
20 21 0 3
20 25 0 6
3 4 1 2
21 22 3 4
22 23 4 5
25 26 6 7
26 27 7 8


>  <atomInfo>  (1) 
1  -0.2474746OA
2  0.32991091C 
3  -0.3070913N 
4  0.04679333A 
5  -0.0195452A 
6  0.04552740A 
7  -0.0841533Cl
8  -0.0074594A 
9  0.12626280A 
10 -0.2068729F 
11 -0.0024685A 
12 -0.2707200N 
13 0.02378908C 
14 -0.0086937C 
15 -0.0269019C 
16 -0.0294358C 
17 -0.0640920C 
18 -0.0083851C 
19 0.02778702C 
20 -0.0400505C 
21 0.01888677C 
22 -0.1238758SA
23 0.13529513C 
24 -0.2392721F 
25 -0.0266644C 
26 -0.0207193C 
27 0.08970831C 
28 -0.2510962F 


$$$$
