
     RDKit          3D

 21 23  0  0  0  0  0  0  0  0999 V2000
    0.5295   -3.8809   -0.9250 O   0  0  0  0  0  0  0  0  0  0  0  0
    0.3220   -2.6689   -0.6887 C   0  0  0  0  0  0  0  0  0  0  0  0
    1.5545   -1.9919   -0.4534 N   0  0  0  0  0  0  0  0  0  0  0  0
    1.9124   -0.6528   -0.1569 C   0  0  0  0  0  0  0  0  0  0  0  0
    3.2987   -0.5673   -0.2340 C   0  0  0  0  0  0  0  0  0  0  0  0
    3.9443    0.6188    0.0055 C   0  0  0  0  0  0  0  0  0  0  0  0
    5.7032    0.7275   -0.0922 Cl  0  0  0  0  0  0  0  0  0  0  0  0
    3.2600    1.7691    0.3300 C   0  0  0  0  0  0  0  0  0  0  0  0
    1.8934    1.7094    0.4118 C   0  0  0  0  0  0  0  0  0  0  0  0
    1.1404    2.7953    0.7257 F   0  0  0  0  0  0  0  0  0  0  0  0
    1.2505    0.5131    0.1697 C   0  0  0  0  0  0  0  0  0  0  0  0
   -1.0657   -2.2821   -0.7146 N   0  0  0  0  0  0  0  0  0  0  0  0
   -1.7841   -1.1204   -0.3321 C   0  0  0  0  0  0  0  0  0  0  0  0
   -3.2737   -1.2308   -0.3950 C   0  0  0  0  0  0  0  0  0  0  0  0
   -3.6658    0.2452   -0.5611 C   0  0  2  0  0  0  0  0  0  0  0  0
   -2.6467    0.9059    0.3410 C   0  0  0  0  0  0  0  0  0  0  0  0
   -1.4389    0.0844    0.0802 C   0  0  0  0  0  0  0  0  0  0  0  0
   -0.1756    0.7909    0.3368 C   0  0  0  0  0  0  0  0  0  0  0  0
   -0.3249    1.9471    0.8331 O   0  0  0  0  0  0  0  0  0  0  0  0
   -5.0706    0.4844   -0.0705 C   0  0  0  0  0  0  0  0  0  0  0  0
   -5.3631    1.8039   -0.2414 F   0  0  0  0  0  0  0  0  0  0  0  0
  1  2  2  0
  2  3  1  0
  3  4  1  0
  4  5  2  0
  5  6  1  0
  6  7  1  0
  6  8  2  0
  8  9  1  0
  9 10  1  0
  9 11  2  0
  2 12  1  0
 12 13  1  0
 13 14  1  0
 14 15  1  0
 15 16  1  0
 16 17  1  0
 17 18  1  0
 18 19  2  0
 15 20  1  1
 20 21  1  0
 11  4  1  0
 18 11  1  0
 13 17  2  0
M  END
>  <fragInfo>  (1) 
1 2 3 4 5 6 7 8 9 10 11 12 13 14 15 16 17 18 19
20 21


>  <torsionInfo>  (1) 
15 20 0 1


>  <atomInfo>  (1) 
1  -0.2481164OA
2  0.32295649C 
3  -0.3068110N 
4  0.05801620A 
5  -0.0187823A 
6  0.04557738A 
7  -0.0841525Cl
8  -0.0066796A 
9  0.13745824A 
10 -0.2060529F 
11 0.08168420A 
12 -0.3110781N 
13 0.02699789C 
14 -0.0063942C 
15 -0.0030830C 
16 -0.0165311C 
17 0.02008632C 
18 0.19531409C 
19 -0.2887060OA
20 0.09290640C 
21 -0.2507766F 


$$$$
