
     RDKit          3D

 29 33  0  0  0  0  0  0  0  0999 V2000
    3.0044    0.2676    0.1849 O   0  0  0  0  0  0  0  0  0  0  0  0
    2.6310    1.3945   -0.2836 C   0  0  0  0  0  0  0  0  0  0  0  0
    3.5994    2.2866   -0.8190 N   0  0  0  0  0  0  0  0  0  0  0  0
    5.0029    1.9264   -0.8406 C   0  0  1  0  0  0  0  0  0  0  0  0
    5.8254    2.5021    0.3145 C   0  0  0  0  0  0  0  0  0  0  0  0
    5.4322    1.0502    0.3178 C   0  0  2  0  0  0  0  0  0  0  0  0
    6.5472    0.1101    0.1148 C   0  0  0  0  0  0  0  0  0  0  0  0
    6.8477   -0.7575    1.1422 C   0  0  0  0  0  0  0  0  0  0  0  0
    7.8629   -1.6757    1.0780 C   0  0  0  0  0  0  0  0  0  0  0  0
    8.6222   -1.7312   -0.0765 C   0  0  0  0  0  0  0  0  0  0  0  0
    8.3169   -0.8543   -1.1147 C   0  0  0  0  0  0  0  0  0  0  0  0
    7.2934    0.0646   -1.0388 C   0  0  0  0  0  0  0  0  0  0  0  0
    1.2239    1.7123   -0.2453 N   0  0  0  0  0  0  0  0  0  0  0  0
    0.3300    0.7630    0.3181 C   0  0  2  0  0  0  0  0  0  0  0  0
   -0.6848    0.1890   -0.6703 C   0  0  0  0  0  0  0  0  0  0  0  0
   -1.6090   -0.5631    0.2703 C   0  0  2  0  0  0  0  0  0  0  0  0
   -2.9709   -0.5719   -0.2781 C   0  0  0  0  0  0  0  0  0  0  0  0
   -4.1250   -0.5419    0.4594 N   0  0  0  0  0  0  0  0  0  0  0  0
   -5.1836   -0.5650   -0.3519 C   0  0  0  0  0  0  0  0  0  0  0  0
   -6.5982   -0.5530   -0.0495 C   0  0  0  0  0  0  0  0  0  0  0  0
   -7.5946   -0.5811   -1.0157 C   0  0  0  0  0  0  0  0  0  0  0  0
   -8.9385   -0.5665   -0.6945 C   0  0  0  0  0  0  0  0  0  0  0  0
   -9.2948   -0.5231    0.6318 C   0  0  0  0  0  0  0  0  0  0  0  0
   -8.3036   -0.4957    1.5859 C   0  0  0  0  0  0  0  0  0  0  0  0
   -7.0212   -0.5105    1.2187 N   0  0  0  0  0  0  0  0  0  0  0  0
   -4.6696   -0.6084   -1.5932 N   0  0  0  0  0  0  0  0  0  0  0  0
   -3.3731   -0.6115   -1.5262 O   0  0  0  0  0  0  0  0  0  0  0  0
   -1.5935    0.1761    1.5705 C   0  0  0  0  0  0  0  0  0  0  0  0
   -0.5791    1.2687    1.3911 C   0  0  0  0  0  0  0  0  0  0  0  0
  1  2  2  0
  2  3  1  0
  4  3  1  1
  4  5  1  0
  5  6  1  0
  6  7  1  6
  7  8  2  0
  8  9  1  0
  9 10  2  0
 10 11  1  0
 11 12  2  0
  2 13  1  0
 14 13  1  6
 14 15  1  0
 15 16  1  0
 16 17  1  6
 17 18  2  0
 18 19  1  0
 19 20  1  0
 20 21  2  0
 21 22  1  0
 22 23  2  0
 23 24  1  0
 24 25  2  0
 19 26  2  0
 26 27  1  0
 16 28  1  0
 28 29  1  0
  6  4  1  0
 12  7  1  0
 29 14  1  0
 27 17  1  0
 25 20  1  0
M  END
>  <fragInfo>  (1) 
7 8 9 10 11 12
1 2 3 13
4 5 6
14 15 16 28 29
17 18 19 26 27
20 21 22 23 24 25


>  <torsionInfo>  (1) 
6 7 2 0
3 4 1 2
13 14 1 3
16 17 3 4
19 20 4 5


>  <atomInfo>  (1) 
1  -0.2488910OA
2  0.31474364C 
3  -0.3347878N 
4  0.03813214C 
5  -0.0232215C 
6  0.00622061C 
7  -0.0427878A 
8  -0.0586825A 
9  -0.0619824A 
10 -0.0622483A 
11 -0.0619824A 
12 -0.0586825A 
13 -0.3354036N 
14 0.03132282C 
15 -0.0210292C 
16 0.04044497C 
17 0.22970035A 
18 -0.1895648NA
19 0.22050869A 
20 0.11113078A 
21 -0.0323542A 
22 -0.0584502A 
23 -0.0437662A 
24 0.02762940A 
25 -0.2527805NA
26 -0.0554006NA
27 -0.3386227OA
28 -0.0395708C 
29 -0.0319292C 


$$$$
