
     RDKit          3D

 27 30  0  0  0  0  0  0  0  0999 V2000
    2.0351    1.2429   -0.2649 O   0  0  0  0  0  0  0  0  0  0  0  0
    1.6179    0.5038    0.6729 C   0  0  0  0  0  0  0  0  0  0  0  0
    2.4815   -0.0336    1.6507 N   0  0  0  0  0  0  0  0  0  0  0  0
    3.9096    0.2727    1.5676 C   0  0  1  0  0  0  0  0  0  0  0  0
    4.7495   -0.3494    2.7180 C   0  0  0  0  0  0  0  0  0  0  0  0
    4.8375   -0.8569    1.2844 C   0  0  2  0  0  0  0  0  0  0  0  0
    6.1219   -0.5473    0.6137 C   0  0  0  0  0  0  0  0  0  0  0  0
    7.3180   -1.0043    1.1692 C   0  0  0  0  0  0  0  0  0  0  0  0
    8.5268   -0.7544    0.5997 C   0  0  0  0  0  0  0  0  0  0  0  0
    8.6097   -0.0323   -0.5595 C   0  0  0  0  0  0  0  0  0  0  0  0
    7.4420    0.4331   -1.1320 C   0  0  0  0  0  0  0  0  0  0  0  0
    6.2120    0.1795   -0.5536 C   0  0  0  0  0  0  0  0  0  0  0  0
    0.2228    0.2315    0.7029 N   0  0  0  0  0  0  0  0  0  0  0  0
   -0.7380    0.7205   -0.2316 C   0  0  0  0  0  0  0  0  0  0  0  0
   -0.4450    0.2868   -1.6561 C   0  0  0  0  0  0  0  0  0  0  0  0
   -1.5725    0.8837   -2.5146 C   0  0  0  0  0  0  0  0  0  0  0  0
   -2.8600    0.3486   -2.0466 C   0  0  0  0  0  0  0  0  0  0  0  0
   -3.6654    0.8627   -1.1117 N   0  0  0  0  0  0  0  0  0  0  0  0
   -4.7424    0.0804   -0.9735 C   0  0  0  0  0  0  0  0  0  0  0  0
   -5.8957    0.2095   -0.0944 C   0  0  0  0  0  0  0  0  0  0  0  0
   -6.0371    1.2570    0.7902 C   0  0  0  0  0  0  0  0  0  0  0  0
   -7.1378    1.3566    1.6088 C   0  0  0  0  0  0  0  0  0  0  0  0
   -8.1284    0.3936    1.5528 C   0  0  0  0  0  0  0  0  0  0  0  0
   -7.9713   -0.6450    0.6637 C   0  0  0  0  0  0  0  0  0  0  0  0
   -6.8832   -0.7147   -0.1241 N   0  0  0  0  0  0  0  0  0  0  0  0
   -4.5700   -0.9277   -1.8538 N   0  0  0  0  0  0  0  0  0  0  0  0
   -3.4375   -0.7385   -2.4783 O   0  0  0  0  0  0  0  0  0  0  0  0
  1  2  2  0
  2  3  1  0
  4  3  1  1
  4  5  1  0
  5  6  1  0
  6  7  1  6
  7  8  2  0
  8  9  1  0
  9 10  2  0
 10 11  1  0
 11 12  2  0
  2 13  1  0
 13 14  1  0
 14 15  1  0
 15 16  1  0
 16 17  1  0
 17 18  2  0
 18 19  1  0
 19 20  1  0
 20 21  2  0
 21 22  1  0
 22 23  2  0
 23 24  1  0
 24 25  2  0
 19 26  2  0
 26 27  1  0
  6  4  1  0
 12  7  1  0
 27 17  1  0
 25 20  1  0
M  END
>  <fragInfo>  (1) 
7 8 9 10 11 12
1 2 3 13
4 5 6
14
15
16
17 18 19 26 27
20 21 22 23 24 25


>  <torsionInfo>  (1) 
6 7 2 0
3 4 1 2
13 14 1 3
14 15 3 4
15 16 4 5
16 17 5 6
19 20 6 7


>  <atomInfo>  (1) 
1  -0.2489001OA
2  0.31452706C 
3  -0.3347948N 
4  0.03813201C 
5  -0.0232215C 
6  0.00622061C 
7  -0.0427878A 
8  -0.0586825A 
9  -0.0619824A 
10 -0.0622483A 
11 -0.0619824A 
12 -0.0586825A 
13 -0.3381441N 
14 0.01961045C 
15 -0.0268123C 
16 0.02864913C 
17 0.22657393A 
18 -0.1898188NA
19 0.22049981A 
20 0.11113063A 
21 -0.0323542A 
22 -0.0584502A 
23 -0.0437662A 
24 0.02762940A 
25 -0.2527805NA
26 -0.0554144NA
27 -0.3389357OA


$$$$
