
     RDKit          3D

 29 33  0  0  0  0  0  0  0  0999 V2000
    3.0260   -0.4719    2.0885 O   0  0  0  0  0  0  0  0  0  0  0  0
    2.5286    0.2788    1.1047 C   0  0  0  0  0  0  0  0  0  0  0  0
    3.1450    1.5090    0.9080 N   0  0  0  0  0  0  0  0  0  0  0  0
    4.2216    1.8730    1.8433 C   0  0  2  0  0  0  0  0  0  0  0  0
    5.4697    2.3874    1.3326 C   0  0  0  0  0  0  0  0  0  0  0  0
    5.4315    0.9155    1.7304 C   0  0  2  0  0  0  0  0  0  0  0  0
    5.5251    0.0104    0.5286 C   0  0  0  0  0  0  0  0  0  0  0  0
    6.2869    0.4043   -0.4931 C   0  0  0  0  0  0  0  0  0  0  0  0
    6.5013   -0.3395   -1.7176 C   0  0  0  0  0  0  0  0  0  0  0  0
    5.7926   -1.5822   -1.7217 C   0  0  0  0  0  0  0  0  0  0  0  0
    5.0306   -1.9376   -0.6585 C   0  0  0  0  0  0  0  0  0  0  0  0
    4.8805   -1.1942    0.4540 C   0  0  0  0  0  0  0  0  0  0  0  0
    1.4489   -0.1829    0.3438 N   0  0  0  0  0  0  0  0  0  0  0  0
    0.8080   -1.4783    0.7579 C   0  0  0  0  0  0  0  0  0  0  0  0
   -0.3777   -1.8557   -0.0225 C   0  0  0  0  0  0  0  0  0  0  0  0
   -1.2224   -0.6440   -0.3565 C   0  0  1  0  0  0  0  0  0  0  0  0
   -2.6299   -0.9202   -0.4668 C   0  0  0  0  0  0  0  0  0  0  0  0
   -3.5138   -0.1367    0.2009 N   0  0  0  0  0  0  0  0  0  0  0  0
   -4.8492   -0.3829    0.1211 C   0  0  0  0  0  0  0  0  0  0  0  0
   -5.7448    0.5277   -0.7425 C   0  0  0  0  0  0  0  0  0  0  0  0
   -6.7057    1.1684   -1.5078 C   0  0  0  0  0  0  0  0  0  0  0  0
   -7.9082    0.5011   -1.6943 C   0  0  0  0  0  0  0  0  0  0  0  0
   -8.1170   -0.7676   -1.0747 C   0  0  0  0  0  0  0  0  0  0  0  0
   -7.0157   -1.2496   -0.3055 C   0  0  0  0  0  0  0  0  0  0  0  0
   -6.3912   -0.3877   -0.5138 C   0  0  0  0  0  0  0  0  0  0  0  0
   -5.6604   -1.4922    0.4323 N   0  0  0  0  0  0  0  0  0  0  0  0
   -0.9803    0.5183    0.5098 C   0  0  0  0  0  0  0  0  0  0  0  0
   -0.0777    1.4773   -0.2862 C   0  0  0  0  0  0  0  0  0  0  0  0
    1.0975    0.6228   -0.7947 C   0  0  0  0  0  0  0  0  0  0  0  0
  1  2  2  0
  2  3  1  0
  4  3  1  6
  4  5  1  0
  5  6  1  0
  6  7  1  6
  7  8  2  0
  8  9  1  0
  9 10  2  0
 10 11  1  0
 11 12  2  0
  2 13  1  0
 13 14  1  0
 14 15  1  0
 16 15  1  1
 16 17  1  0
 17 18  2  3
 18 19  1  0
 19 20  1  0
 20 21  2  0
 21 22  1  0
 22 23  2  0
 23 24  1  0
 24 25  2  0
 19 26  2  0
 16 27  1  0
 27 28  1  0
 28 29  1  0
  6  4  1  0
 12  7  1  0
 29 13  1  0
 25 20  1  0
 26 24  1  0
M  END
>  <fragInfo>  (1) 
19 20 21 22 23 24 25 26
1 2 3
4 5 6
7 8 9 10 11 12
13 14 15 16 27 28 29
17 18


>  <torsionInfo>  (1) 
18 19 5 0
2 13 1 4
3 4 1 2
6 7 2 3
16 17 4 5


>  <atomInfo>  (1) 
1  -0.2486618OA
2  0.31713130C 
3  -0.3346176N 
4  0.03813915C 
5  -0.0232214C 
6  0.00622073C 
7  -0.0427878A 
8  -0.0586825A 
9  -0.0619824A 
10 -0.0622483A 
11 -0.0619824A 
12 -0.0586825A 
13 -0.3248043N 
14 0.02283772C 
15 -0.0275396C 
16 -0.0039496C 
17 0.00998138C 
18 -0.2407623NA
19 0.15899646C 
20 0.02128437A 
21 -0.0510387A 
22 -0.0593882A 
23 -0.0362917A 
24 0.06624727A 
25 -0.0252781A 
26 -0.2286942NA
27 -0.0437062C 
28 -0.0347574C 
29 0.02224293C 


$$$$
