
     RDKit          3D

 25 28  0  0  0  0  0  0  0  0999 V2000
    5.1832    1.6658    0.3713 C   0  0  0  0  0  0  0  0  0  0  0  0
    6.1033    0.9131    1.3202 C   0  0  0  0  0  0  0  0  0  0  0  0
    5.4687   -0.3758    0.7864 C   0  0  2  0  0  0  0  0  0  0  0  0
    6.5505   -1.3879    0.4778 C   0  0  0  0  0  0  0  0  0  0  0  0
    5.0863    0.3962   -0.4458 C   0  0  1  0  0  0  0  0  0  0  0  0
    3.7313    0.1871   -0.9208 N   0  0  0  0  0  0  0  0  0  0  0  0
    2.8041   -0.6587   -0.2930 C   0  0  0  0  0  0  0  0  0  0  0  0
    3.1591   -1.2769    0.7440 O   0  0  0  0  0  0  0  0  0  0  0  0
    1.4703   -0.8559   -0.7719 N   0  0  0  0  0  0  0  0  0  0  0  0
    0.5458   -1.7401   -0.0896 C   0  0  0  0  0  0  0  0  0  0  0  0
   -0.7570   -1.7317   -0.8697 C   0  0  0  0  0  0  0  0  0  0  0  0
   -1.2360   -0.3123   -0.9239 C   0  0  0  0  0  0  0  0  0  0  0  0
   -0.2207    0.6331   -1.5321 C   0  0  0  0  0  0  0  0  0  0  0  0
    0.9790   -0.1833   -1.9591 C   0  0  0  0  0  0  0  0  0  0  0  0
   -2.5599   -0.1360   -1.6788 C   0  0  0  0  0  0  0  0  0  0  0  0
   -3.1821    0.1329   -0.4261 N   0  0  0  0  0  0  0  0  0  0  0  0
   -3.9289    1.3404   -0.2862 C   0  0  0  0  0  0  0  0  0  0  0  0
   -3.1462    2.4450    0.4022 C   0  0  0  0  0  0  0  0  0  0  0  0
   -4.3678    1.8745   -1.6283 C   0  0  0  0  0  0  0  0  0  0  0  0
   -1.9108    0.1857    0.3116 C   0  0  1  0  0  0  0  0  0  0  0  0
   -2.0623   -0.8367    1.4067 C   0  0  0  0  0  0  0  0  0  0  0  0
   -3.0774   -1.1180    2.2357 C   0  0  0  0  0  0  0  0  0  0  0  0
   -4.4225   -0.5439    2.3959 C   0  0  0  0  0  0  0  0  0  0  0  0
   -5.1615    0.3177    1.6972 C   0  0  0  0  0  0  0  0  0  0  0  0
   -5.0482    1.0658    0.5360 O   0  0  0  0  0  0  0  0  0  0  0  0
  1  2  1  0
  2  3  1  0
  3  4  1  6
  3  5  1  0
  5  6  1  1
  6  7  1  0
  7  8  2  0
  7  9  1  0
  9 10  1  0
 10 11  1  0
 11 12  1  0
 12 13  1  0
 13 14  1  0
 12 15  1  0
 15 16  1  0
 16 17  1  0
 17 18  1  0
 17 19  1  0
 16 20  1  0
 20 21  1  0
 21 22  2  3
 22 23  1  0
 23 24  2  3
 24 25  1  0
  5  1  1  0
 14  9  1  0
 20 12  1  6
 25 17  1  0
M  END
>  <fragInfo>  (1) 
9 10 11 12 13 14 15 16 17 18 19 20 21 22 23 24 25
1 2 3 4 5
6 7 8


>  <torsionInfo>  (1) 
7 9 2 0
5 6 1 2


>  <atomInfo>  (1) 
1  -0.0321249C 
2  -0.0467931C 
3  -0.0237095C 
4  -0.0605475C 
5  0.03311160C 
6  -0.3349908N 
7  0.31712014C 
8  -0.2486620OA
9  -0.3247812N 
10 0.02287008C 
11 -0.0265660C 
12 0.00585332C 
13 -0.0265660C 
14 0.02287008C 
15 0.01004458C 
16 -0.2587516NA
17 0.15693083C 
18 -0.0108473C 
19 -0.0108473C 
20 0.03877950C 
21 -0.0665564C 
22 -0.0616450C 
23 -0.0276879C 
24 0.08555448C 
25 -0.4807530OA


$$$$
