
     RDKit          3D

 28 31  0  0  0  0  0  0  0  0999 V2000
   -0.0653    2.9386    0.3573 O   0  0  0  0  0  0  0  0  0  0  0  0
   -0.3478    1.8882   -0.1430 C   0  0  0  0  0  0  0  0  0  0  0  0
   -1.3333    0.8529   -0.0992 N   0  0  0  0  0  0  0  0  0  0  0  0
   -2.7143    0.6919   -0.1068 C   0  0  0  0  0  0  0  0  0  0  0  0
   -3.3815    0.4866   -1.3066 C   0  0  0  0  0  0  0  0  0  0  0  0
   -4.7172    0.2496   -1.4093 C   0  0  0  0  0  0  0  0  0  0  0  0
   -5.4980    0.1944   -0.2579 C   0  0  0  0  0  0  0  0  0  0  0  0
   -6.8230   -0.0856   -0.3313 F   0  0  0  0  0  0  0  0  0  0  0  0
   -4.8760    0.3922    0.9520 C   0  0  0  0  0  0  0  0  0  0  0  0
   -5.8645    0.3623    2.3976 Cl  0  0  0  0  0  0  0  0  0  0  0  0
   -3.4834    0.6405    1.0185 C   0  0  0  0  0  0  0  0  0  0  0  0
   -0.1507   -0.0361   -0.1421 C   0  0  1  0  0  0  0  0  0  0  0  0
   -0.2379   -1.4097   -0.3959 C   0  0  0  0  0  0  0  0  0  0  0  0
   -0.8156   -2.0588   -1.5139 C   0  0  0  0  0  0  0  0  0  0  0  0
   -0.8060   -3.4121   -1.5727 C   0  0  0  0  0  0  0  0  0  0  0  0
   -0.2722   -4.2444   -0.6497 C   0  0  0  0  0  0  0  0  0  0  0  0
    0.3101   -3.6024    0.4738 C   0  0  0  0  0  0  0  0  0  0  0  0
    0.2996   -2.2830    0.5439 N   0  0  0  0  0  0  0  0  0  0  0  0
    0.2770    0.9808   -1.2190 C   0  0  2  0  0  0  0  0  0  0  0  0
    1.7237    1.2441   -1.3439 C   0  0  0  0  0  0  0  0  0  0  0  0
    2.3857    0.8726    0.0151 C   0  0  2  0  0  0  0  0  0  0  0  0
    3.7327    1.0575   -0.0046 N   0  0  0  0  0  0  0  0  0  0  0  0
    4.8163    2.0321    0.0514 N   0  0  0  0  0  0  0  0  0  0  0  0
    5.9758    1.2474    0.5153 C   0  0  0  0  0  0  0  0  0  0  0  0
    7.0380    1.3564   -0.6050 C   0  0  0  0  0  0  0  0  0  0  0  0
    8.1521    0.5842   -0.3400 F   0  0  0  0  0  0  0  0  0  0  0  0
    3.9532   -0.3481   -0.1811 C   0  0  0  0  0  0  0  0  0  0  0  0
    2.7223   -0.5921   -0.1658 C   0  0  0  0  0  0  0  0  0  0  0  0
  1  2  2  0
  2  3  1  0
  3  4  1  0
  4  5  2  0
  5  6  1  0
  6  7  2  0
  7  8  1  0
  7  9  1  0
  9 10  1  0
  9 11  2  0
  3 12  1  0
 12 13  1  6
 13 14  2  0
 14 15  1  0
 15 16  2  0
 16 17  1  0
 17 18  2  0
 12 19  1  0
 19 20  1  1
 21 20  1  6
 21 22  1  0
 22 23  1  0
 23 24  1  0
 24 25  1  0
 25 26  1  0
 22 27  1  0
 27 28  2  0
 19  2  1  0
 11  4  1  0
 18 13  1  0
 28 21  1  0
M  END
>  <fragInfo>  (1) 
4 5 6 7 8 9 10 11
1 2 3 12 19
13 14 15 16 17 18
20
21 22 27 28
23
24
25 26


>  <torsionInfo>  (1) 
3 4 1 0
12 13 1 2
19 20 1 3
20 21 3 4
22 23 4 5
23 24 5 6
24 25 6 7


>  <atomInfo>  (1) 
1  -0.2740668OA
2  0.23285196C 
3  -0.3021679N 
4  0.04611627A 
5  -0.0352702A 
6  -0.0226871A 
7  0.14143861A 
8  -0.2053590F 
9  0.07835147A 
10 -0.0810568Cl
11 -0.0165781A 
12 0.09063043C 
13 0.06411196A 
14 -0.0383809A 
15 -0.0588459A 
16 -0.0437944A 
17 0.02716004A 
18 -0.2590632NA
19 0.06738636C 
20 -0.0133160C 
21 0.06536296C 
22 -0.3088772N 
23 -0.2317419NA
24 0.04353409C 
25 0.10366966C 
26 -0.2496285F 
27 0.01454253C 
28 -0.0431338C 


$$$$
