
     RDKit          3D

 11 11  0  0  0  0  0  0  0  0999 V2000
    3.3767    0.1935    1.0042 O   0  0  0  0  0  0  0  0  0  0  0  0
    2.8636   -0.3723    0.0049 C   0  0  0  0  0  0  0  0  0  0  0  0
    1.4867   -0.1394   -0.2588 N   0  0  0  0  0  0  0  0  0  0  0  0
    0.8026    0.7242    0.6427 C   0  0  0  0  0  0  0  0  0  0  0  0
   -0.5127    0.8317    0.8169 C   0  0  0  0  0  0  0  0  0  0  0  0
   -1.5433    0.0768    0.1108 C   0  0  0  0  0  0  0  0  0  0  0  0
   -2.7956    0.4833    0.1718 C   0  0  0  0  0  0  0  0  0  0  0  0
   -3.0439    1.5987    0.9023 F   0  0  0  0  0  0  0  0  0  0  0  0
    1.0174   -0.8440   -1.4320 C   0  0  0  0  0  0  0  0  0  0  0  0
   -0.2972   -1.4574   -1.2946 C   0  0  0  0  0  0  0  0  0  0  0  0
   -1.3543   -1.0951   -0.6684 N   0  0  0  0  0  0  0  0  0  0  0  0
  1  2  2  0
  2  3  1  0
  3  4  1  0
  4  5  2  0
  5  6  1  0
  6  7  2  3
  7  8  1  0
  3  9  1  0
  9 10  1  0
 10 11  2  0
 11  6  1  0
M  END
>  <fragInfo>  (1) 
3 4 5 6 7 8 9 10 11
1 2


>  <torsionInfo>  (1) 
2 3 1 0


>  <atomInfo>  (1) 
1  -0.2783056OA
2  0.21350920C 
3  -0.3162066N 
4  0.00914456C 
5  -0.0176613C 
6  0.09228501C 
7  0.11233704C 
8  -0.2131721F 
9  0.06029919C 
10 0.02495225C 
11 -0.2568802NA


$$$$
