
     RDKit          3D

 28 32  0  0  0  0  0  0  0  0999 V2000
   -3.1810   -0.0216    0.7692 O   0  0  0  0  0  0  0  0  0  0  0  0
   -2.4028   -0.1341   -0.2085 C   0  0  0  0  0  0  0  0  0  0  0  0
   -2.8824    0.2508   -1.4901 N   0  0  0  0  0  0  0  0  0  0  0  0
   -4.2033    0.7585   -1.7333 C   0  0  0  0  0  0  0  0  0  0  0  0
   -5.2807    0.4433   -0.7661 C   0  0  0  0  0  0  0  0  0  0  0  0
   -4.8212    1.7033   -0.7985 C   0  0  0  0  0  0  0  0  0  0  0  0
   -5.4017    2.7213    0.1237 C   0  0  0  0  0  0  0  0  0  0  0  0
   -6.8805    2.4885    0.1901 C   0  0  0  0  0  0  0  0  0  0  0  0
   -7.3538    1.2492    0.2289 C   0  0  0  0  0  0  0  0  0  0  0  0
   -6.3555    0.1407    0.2028 C   0  0  0  0  0  0  0  0  0  0  0  0
   -1.0757   -0.6365   -0.0237 N   0  0  0  0  0  0  0  0  0  0  0  0
   -0.6098   -1.0227    1.2924 C   0  0  0  0  0  0  0  0  0  0  0  0
   -0.1517   -2.4772    1.1847 C   0  0  0  0  0  0  0  0  0  0  0  0
    0.8545   -2.7041    0.1115 C   0  0  2  0  0  0  0  0  0  0  0  0
    2.1209   -1.9677    0.4412 C   0  0  0  0  0  0  0  0  0  0  0  0
    2.7692   -1.0510   -0.3058 N   0  0  0  0  0  0  0  0  0  0  0  0
    3.8711   -0.6133    0.3264 C   0  0  0  0  0  0  0  0  0  0  0  0
    4.8585    0.3661   -0.1070 C   0  0  0  0  0  0  0  0  0  0  0  0
    4.7908    1.0239   -1.3153 C   0  0  0  0  0  0  0  0  0  0  0  0
    5.7647    1.9529   -1.6828 C   0  0  0  0  0  0  0  0  0  0  0  0
    6.8130    2.2236   -0.8331 C   0  0  0  0  0  0  0  0  0  0  0  0
    6.8593    1.5542    0.3670 C   0  0  0  0  0  0  0  0  0  0  0  0
    5.8988    0.6653    0.6838 N   0  0  0  0  0  0  0  0  0  0  0  0
    3.8771   -1.2963    1.4924 N   0  0  0  0  0  0  0  0  0  0  0  0
    2.8372   -2.0840    1.5324 O   0  0  0  0  0  0  0  0  0  0  0  0
    0.3507   -2.2180   -1.2327 C   0  0  0  0  0  0  0  0  0  0  0  0
   -0.1498   -0.7794   -1.1289 C   0  0  1  0  0  0  0  0  0  0  0  0
   -0.9158   -0.5359   -2.3634 N   0  0  0  0  0  0  0  0  0  0  0  0
  1  2  2  0
  2  3  1  0
  3  4  1  0
  4  5  1  0
  5  6  2  0
  6  7  1  0
  7  8  1  0
  8  9  2  0
  9 10  1  0
  2 11  1  0
 11 12  1  0
 12 13  1  0
 13 14  1  0
 14 15  1  1
 15 16  2  0
 16 17  1  0
 17 18  1  0
 18 19  2  0
 19 20  1  0
 20 21  2  0
 21 22  1  0
 22 23  2  0
 17 24  2  0
 24 25  1  0
 14 26  1  0
 26 27  1  0
 27 28  1  6
  6  4  1  0
 10  5  1  0
 27 11  1  0
 25 15  1  0
 23 18  1  0
M  END
>  <fragInfo>  (1) 
4 5 6 7 8 9 10
1 2 3
11 12 13 14 26 27 28
15 16 17 24 25
18 19 20 21 22 23


>  <torsionInfo>  (1) 
3 4 1 0
2 11 1 2
14 15 2 3
17 18 3 4


>  <atomInfo>  (1) 
1  -0.2485888OA
2  0.31887954C 
3  -0.3276573N 
4  0.07447148C 
5  -0.0380792C 
6  -0.0380792C 
7  -0.0111330C 
8  -0.0840459C 
9  -0.0840459C 
10 -0.0111330C 
11 -0.3094596N 
12 0.02455184C 
13 -0.0234952C 
14 0.04334085C 
15 0.22982086A 
16 -0.1895630NA
17 0.22050870A 
18 0.11113078A 
19 -0.0323542A 
20 -0.0584502A 
21 -0.0437662A 
22 0.02762940A 
23 -0.2527805NA
24 -0.0554006NA
25 -0.3386205OA
26 -0.0074331C 
27 0.08229489C 
28 -0.3111212NA


$$$$
