
     RDKit          3D

 11 11  0  0  0  0  0  0  0  0999 V2000
    3.2437    1.4781    0.3516 O   0  0  0  0  0  0  0  0  0  0  0  0
    2.8512    0.3546    0.0144 C   0  0  0  0  0  0  0  0  0  0  0  0
    1.5217   -0.1160    0.2066 N   0  0  0  0  0  0  0  0  0  0  0  0
    0.5779    0.7710    0.8315 C   0  0  0  0  0  0  0  0  0  0  0  0
   -0.7580    0.7999    0.6597 C   0  0  0  0  0  0  0  0  0  0  0  0
   -1.5530   -0.0801   -0.2152 C   0  0  0  0  0  0  0  0  0  0  0  0
   -2.8649   -0.0547   -0.0439 C   0  0  0  0  0  0  0  0  0  0  0  0
   -3.3802    0.7566    0.8993 F   0  0  0  0  0  0  0  0  0  0  0  0
    1.2173   -1.4562   -0.2416 C   0  0  0  0  0  0  0  0  0  0  0  0
    0.1447   -1.5220   -1.2555 C   0  0  0  0  0  0  0  0  0  0  0  0
   -1.0004   -0.9311   -1.2068 N   0  0  0  0  0  0  0  0  0  0  0  0
  1  2  2  0
  2  3  1  0
  3  4  1  0
  4  5  2  0
  5  6  1  0
  6  7  2  3
  7  8  1  0
  3  9  1  0
  9 10  1  0
 10 11  2  0
 11  6  1  0
M  END
>  <fragInfo>  (1) 
3 4 5 6 7 8 9 10 11
1 2


>  <torsionInfo>  (1) 
2 3 1 0


>  <atomInfo>  (1) 
1  -0.2783056OA
2  0.21350920C 
3  -0.3162066N 
4  0.00914456C 
5  -0.0176613C 
6  0.09228501C 
7  0.11233704C 
8  -0.2131721F 
9  0.06029919C 
10 0.02495225C 
11 -0.2568802NA


$$$$
