
     RDKit          3D

 29 32  0  0  0  0  0  0  0  0999 V2000
   -1.0600   -0.7854    0.3006 O   0  0  0  0  0  0  0  0  0  0  0  0
   -1.8441    0.2099    0.1864 C   0  0  0  0  0  0  0  0  0  0  0  0
   -3.1161    0.0359    0.7997 N   0  0  0  0  0  0  0  0  0  0  0  0
   -3.4441   -1.1938    1.4994 C   0  0  1  0  0  0  0  0  0  0  0  0
   -3.9652   -1.1578    2.8883 C   0  0  0  0  0  0  0  0  0  0  0  0
   -4.9433   -1.3754    1.7899 C   0  0  1  0  0  0  0  0  0  0  0  0
   -5.8901   -0.3284    1.3549 C   0  0  0  0  0  0  0  0  0  0  0  0
   -6.0434   -0.0509    0.0012 C   0  0  0  0  0  0  0  0  0  0  0  0
   -6.9030    0.9022   -0.4525 C   0  0  0  0  0  0  0  0  0  0  0  0
   -7.6609    1.6357    0.4215 C   0  0  0  0  0  0  0  0  0  0  0  0
   -7.5292    1.3799    1.7839 C   0  0  0  0  0  0  0  0  0  0  0  0
   -6.6614    0.4196    2.2178 C   0  0  0  0  0  0  0  0  0  0  0  0
   -1.4179    1.3640   -0.5068 N   0  0  0  0  0  0  0  0  0  0  0  0
   -0.1349    1.5094   -1.1381 C   0  0  0  0  0  0  0  0  0  0  0  0
    0.0937    0.5855   -2.2071 C   0  0  1  0  0  0  0  0  0  0  0  0
    1.3233    0.4980   -3.0183 C   0  0  1  0  0  0  0  0  0  0  0  0
    2.5441    0.4201   -2.1453 C   0  0  0  0  0  0  0  0  0  0  0  0
    2.6250   -0.1855   -0.9284 N   0  0  0  0  0  0  0  0  0  0  0  0
    3.8447   -0.0615   -0.4557 C   0  0  0  0  0  0  0  0  0  0  0  0
    4.3750   -0.5492    0.8429 C   0  0  0  0  0  0  0  0  0  0  0  0
    5.6245   -0.3589    1.0612 C   0  0  0  0  0  0  0  0  0  0  0  0
    6.4982   -0.6596    2.1394 C   0  0  0  0  0  0  0  0  0  0  0  0
    7.8184   -0.3310    2.0934 C   0  0  0  0  0  0  0  0  0  0  0  0
    8.2297    0.3370    0.8657 C   0  0  0  0  0  0  0  0  0  0  0  0
    8.5608    0.8689   -0.0783 N   0  0  0  0  0  0  0  0  0  0  0  0
    4.5513    0.6398   -1.3952 N   0  0  0  0  0  0  0  0  0  0  0  0
    3.7316    0.8923   -2.3616 O   0  0  0  0  0  0  0  0  0  0  0  0
    0.8952   -0.9578   -3.3710 C   0  0  0  0  0  0  0  0  0  0  0  0
   -0.1020   -0.8667   -2.1878 C   0  0  0  0  0  0  0  0  0  0  0  0
  1  2  2  0
  2  3  1  0
  4  3  1  6
  4  5  1  0
  5  6  1  0
  6  7  1  6
  7  8  2  0
  8  9  1  0
  9 10  2  0
 10 11  1  0
 11 12  2  0
  2 13  1  0
 13 14  1  0
 15 14  1  1
 15 16  1  0
 16 17  1  1
 17 18  2  0
 18 19  1  0
 19 20  1  0
 20 21  2  3
 21 22  1  0
 22 23  2  3
 23 24  1  0
 24 25  3  0
 19 26  2  0
 26 27  1  0
 16 28  1  0
 28 29  1  0
  6  4  1  0
 12  7  1  0
 29 15  1  0
 27 17  1  0
M  END
>  <fragInfo>  (1) 
7 8 9 10 11 12
1 2 3 13
4 5 6
14
15 16 28 29
17 18 19 26 27
20 21
22 23 24 25


>  <torsionInfo>  (1) 
6 7 2 0
3 4 1 2
13 14 1 3
14 15 3 4
16 17 4 5
19 20 5 6
21 22 6 7


>  <atomInfo>  (1) 
1  -0.2488999OA
2  0.31453693C 
3  -0.3347946N 
4  0.03813201C 
5  -0.0232215C 
6  0.00622061C 
7  -0.0427878A 
8  -0.0586825A 
9  -0.0619824A 
10 -0.0622483A 
11 -0.0619824A 
12 -0.0586825A 
13 -0.3378544N 
14 0.02271350C 
15 -0.0121641C 
16 0.04292813C 
17 0.22990140A 
18 -0.1915919NA
19 0.19470165A 
20 -0.0137204C 
21 -0.0576810C 
22 -0.0516349C 
23 0.01569142C 
24 0.09115218C 
25 -0.1930989NA
26 -0.0577926NA
27 -0.3386934OA
28 -0.0409074C 
29 -0.0472263C 


$$$$
