
     RDKit          3D

 11 11  0  0  0  0  0  0  0  0999 V2000
   -3.0611   -1.7009   -0.1062 O   0  0  0  0  0  0  0  0  0  0  0  0
   -2.8479   -0.4759   -0.2274 C   0  0  0  0  0  0  0  0  0  0  0  0
   -1.5593    0.0402    0.1741 N   0  0  0  0  0  0  0  0  0  0  0  0
   -0.6171   -0.9153    0.6871 C   0  0  0  0  0  0  0  0  0  0  0  0
    0.7208   -0.8290    0.5544 C   0  0  0  0  0  0  0  0  0  0  0  0
    1.5291    0.1867   -0.1006 C   0  0  0  0  0  0  0  0  0  0  0  0
    2.8381    0.0666   -0.0648 C   0  0  0  0  0  0  0  0  0  0  0  0
    3.4186   -0.9814    0.5693 F   0  0  0  0  0  0  0  0  0  0  0  0
   -1.3276    1.4488    0.0308 C   0  0  0  0  0  0  0  0  0  0  0  0
   -0.1498    1.8404   -0.7259 C   0  0  0  0  0  0  0  0  0  0  0  0
    1.0562    1.3198   -0.7908 N   0  0  0  0  0  0  0  0  0  0  0  0
  1  2  2  0
  2  3  1  0
  3  4  1  0
  4  5  2  0
  5  6  1  0
  6  7  2  3
  7  8  1  0
  3  9  1  0
  9 10  1  0
 10 11  2  0
 11  6  1  0
M  END
>  <fragInfo>  (1) 
3 4 5 6 7 8 9 10 11
1 2


>  <torsionInfo>  (1) 
2 3 1 0


>  <atomInfo>  (1) 
1  -0.2783056OA
2  0.21350920C 
3  -0.3162066N 
4  0.00914456C 
5  -0.0176613C 
6  0.09228501C 
7  0.11233704C 
8  -0.2131721F 
9  0.06029919C 
10 0.02495225C 
11 -0.2568802NA


$$$$
