
     RDKit          3D

 20 22  0  0  0  0  0  0  0  0999 V2000
    0.0813    3.7418   -0.7480 O   0  0  0  0  0  0  0  0  0  0  0  0
   -0.0279    2.4692   -0.8075 C   0  0  0  0  0  0  0  0  0  0  0  0
    1.2290    1.7929   -0.6859 N   0  0  0  0  0  0  0  0  0  0  0  0
    1.6365    0.5034   -0.2427 C   0  0  0  0  0  0  0  0  0  0  0  0
    3.0123    0.4863   -0.3270 C   0  0  0  0  0  0  0  0  0  0  0  0
    3.7197   -0.6565    0.0434 C   0  0  0  0  0  0  0  0  0  0  0  0
    5.4760   -0.6829   -0.0625 Cl  0  0  0  0  0  0  0  0  0  0  0  0
    2.9899   -1.7375    0.4860 C   0  0  0  0  0  0  0  0  0  0  0  0
    1.6135   -1.7254    0.5721 C   0  0  0  0  0  0  0  0  0  0  0  0
    0.8932   -2.7889    1.0076 F   0  0  0  0  0  0  0  0  0  0  0  0
    0.9112   -0.5842    0.2019 C   0  0  0  0  0  0  0  0  0  0  0  0
   -1.3537    1.9966   -0.9794 N   0  0  0  0  0  0  0  0  0  0  0  0
   -2.1653    0.8693   -0.5559 C   0  0  0  0  0  0  0  0  0  0  0  0
   -3.5919    1.0396   -0.7685 C   0  0  0  0  0  0  0  0  0  0  0  0
   -4.3010   -0.2566   -0.8879 C   0  0  0  0  0  0  0  0  0  0  0  0
   -3.2069   -1.2494    0.2883 S   0  0  1  0  0  0  0  0  0  0  0  0
   -1.7682   -0.2501   -0.0123 C   0  0  0  0  0  0  0  0  0  0  0  0
   -0.4835   -0.8661    0.3963 C   0  0  0  0  0  0  0  0  0  0  0  0
   -0.6916   -1.8951    1.0876 O   0  0  0  0  0  0  0  0  0  0  0  0
   -3.9725   -0.2065    1.9942 F   0  0  0  0  0  0  0  0  0  0  0  0
  1  2  2  0
  2  3  1  0
  3  4  1  0
  4  5  2  0
  5  6  1  0
  6  7  1  0
  6  8  2  0
  8  9  1  0
  9 10  1  0
  9 11  2  0
  2 12  1  0
 12 13  1  0
 13 14  1  0
 14 15  1  0
 15 16  1  0
 16 17  1  0
 17 18  1  0
 18 19  2  0
 16 20  1  1
 11  4  1  0
 18 11  1  0
 13 17  2  0
M  END
>  <fragInfo>  (1) 
1 2 3 4 5 6 7 8 9 10 11 12 13 14 15 16 17 18 19 20


>  <torsionInfo>  (1) 


>  <atomInfo>  (1) 
1  -0.2481159OA
2  0.32298503C 
3  -0.3068100N 
4  0.05804991A 
5  -0.0187818A 
6  0.04557739A 
7  -0.0841525Cl
8  -0.0066790A 
9  0.13749191A 
10 -0.2060523F 
11 0.08260493A 
12 -0.3101831N 
13 0.03846862C 
14 -0.0011618C 
15 0.01088755C 
16 -0.0704741S 
17 0.08232583C 
18 0.20622067C 
19 -0.2877317OA
20 -0.1874440F 


$$$$
