
     RDKit          3D

 27 30  0  0  0  0  0  0  0  0999 V2000
   -5.7697   -1.5754   -1.2225 C   0  0  0  0  0  0  0  0  0  0  0  0
   -6.3442   -0.1986   -1.3669 C   0  0  0  0  0  0  0  0  0  0  0  0
   -5.7157   -0.0768   -2.7193 C   0  0  2  0  0  0  0  0  0  0  0  0
   -6.7551   -0.0602   -3.8122 C   0  0  0  0  0  0  0  0  0  0  0  0
   -5.0537   -1.4168   -2.5305 C   0  0  1  0  0  0  0  0  0  0  0  0
   -3.6284   -1.2566   -2.3157 N   0  0  0  0  0  0  0  0  0  0  0  0
   -2.8820   -1.8480   -1.2760 C   0  0  0  0  0  0  0  0  0  0  0  0
   -3.4835   -2.5803   -0.4542 O   0  0  0  0  0  0  0  0  0  0  0  0
   -1.4891   -1.6564   -1.1122 N   0  0  0  0  0  0  0  0  0  0  0  0
   -0.7722   -2.2915   -0.0265 C   0  0  0  0  0  0  0  0  0  0  0  0
    0.5200   -1.4956    0.1173 C   0  0  0  0  0  0  0  0  0  0  0  0
    0.2400   -0.0105    0.1312 C   0  0  0  0  0  0  0  0  0  0  0  0
   -0.2747    0.4068   -1.2253 C   0  0  0  0  0  0  0  0  0  0  0  0
   -0.6950   -0.8242   -1.9945 C   0  0  0  0  0  0  0  0  0  0  0  0
   -0.7108    0.4352    1.2143 C   0  0  0  0  0  0  0  0  0  0  0  0
    0.2880    1.3146    1.7491 N   0  0  0  0  0  0  0  0  0  0  0  0
    0.6538    1.0820    3.1245 C   0  0  0  0  0  0  0  0  0  0  0  0
    1.2644   -0.2755    3.3449 C   0  0  0  0  0  0  0  0  0  0  0  0
   -0.5764    1.2673    3.9832 C   0  0  0  0  0  0  0  0  0  0  0  0
    1.2271    0.8786    0.7665 C   0  0  1  0  0  0  0  0  0  0  0  0
    2.5001    0.3352    1.2170 C   0  0  0  0  0  0  0  0  0  0  0  0
    3.6257    0.7428    0.9611 C   0  0  0  0  0  0  0  0  0  0  0  0
    4.7529    1.3260    0.5752 C   0  0  0  0  0  0  0  0  0  0  0  0
    6.0202    1.0842    0.8145 C   0  0  0  0  0  0  0  0  0  0  0  0
    7.1592    0.3849    1.3924 C   0  0  0  0  0  0  0  0  0  0  0  0
    7.4420    1.4238    0.6165 C   0  0  0  0  0  0  0  0  0  0  0  0
    8.4572    2.2249    0.0481 N   0  0  0  0  0  0  0  0  0  0  0  0
  1  2  1  0
  2  3  1  0
  3  4  1  6
  3  5  1  0
  5  6  1  1
  6  7  1  0
  7  8  2  0
  7  9  1  0
  9 10  1  0
 10 11  1  0
 11 12  1  0
 12 13  1  0
 13 14  1  0
 12 15  1  0
 15 16  1  0
 16 17  1  0
 17 18  1  0
 17 19  1  0
 20 16  1  1
 20 21  1  0
 21 22  2  3
 22 23  1  0
 23 24  2  3
 24 25  1  0
 25 26  2  0
 26 27  1  0
  5  1  1  0
 14  9  1  0
 20 12  1  0
 26 24  1  0
M  END
>  <fragInfo>  (1) 
9 10 11 12 13 14 15 16 20
1 2 3 4 5
6 7 8
17 18 19
21 22
23 24 25 26 27


>  <torsionInfo>  (1) 
7 9 2 0
16 17 0 3
20 21 0 4
5 6 1 2
22 23 4 5


>  <atomInfo>  (1) 
1  -0.0321249C 
2  -0.0467931C 
3  -0.0237095C 
4  -0.0605475C 
5  0.03311160C 
6  -0.3349908N 
7  0.31712014C 
8  -0.2486620OA
9  -0.3247812N 
10 0.02287004C 
11 -0.0265706C 
12 0.00558730C 
13 -0.0265706C 
14 0.02287004C 
15 0.00663055C 
16 -0.2932956NA
17 0.00449541C 
18 -0.0497845C 
19 -0.0497845C 
20 0.03537212C 
21 -0.0667778C 
22 -0.0640229C 
23 -0.0530989C 
24 -0.0005598C 
25 -0.0292141C 
26 0.03946832C 
27 -0.3982239N 


$$$$
