
     RDKit          3D

 27 30  0  0  0  0  0  0  0  0999 V2000
   -1.9709    1.5354    1.7899 O   0  0  0  0  0  0  0  0  0  0  0  0
   -1.4210    1.6625    0.6438 C   0  0  0  0  0  0  0  0  0  0  0  0
   -2.2876    1.7696   -0.4589 N   0  0  0  0  0  0  0  0  0  0  0  0
   -3.7274    1.7350   -0.2783 C   0  0  0  0  0  0  0  0  0  0  0  0
   -4.0679    0.4074    0.3581 C   0  0  2  0  0  0  0  0  0  0  0  0
   -3.7275   -0.8656   -0.3406 C   0  0  0  0  0  0  0  0  0  0  0  0
   -5.1515   -0.4260   -0.3129 C   0  0  2  0  0  0  0  0  0  0  0  0
   -5.7642    0.2076   -1.4760 C   0  0  0  0  0  0  0  0  0  0  0  0
   -7.0276    0.0806   -1.7520 C   0  0  0  0  0  0  0  0  0  0  0  0
   -7.8941   -0.7036   -0.9094 C   0  0  0  0  0  0  0  0  0  0  0  0
   -7.4330   -1.3027    0.1468 C   0  0  0  0  0  0  0  0  0  0  0  0
   -6.0455   -1.2346    0.5557 C   0  0  0  0  0  0  0  0  0  0  0  0
    0.0026    1.6885    0.5437 N   0  0  0  0  0  0  0  0  0  0  0  0
    0.8131    1.5684    1.7633 C   0  0  0  0  0  0  0  0  0  0  0  0
    0.4866    0.2372    2.4224 C   0  0  0  0  0  0  0  0  0  0  0  0
    0.8076   -0.9276    1.4764 C   0  0  0  0  0  0  0  0  0  0  0  0
    2.2708   -0.8859    1.1409 C   0  0  0  0  0  0  0  0  0  0  0  0
    2.8812   -0.2510    0.1303 N   0  0  0  0  0  0  0  0  0  0  0  0
    4.1808   -0.4910    0.2227 C   0  0  0  0  0  0  0  0  0  0  0  0
    5.2614   -0.0137   -0.6548 C   0  0  0  0  0  0  0  0  0  0  0  0
    4.9667    0.7851   -1.7251 C   0  0  0  0  0  0  0  0  0  0  0  0
    5.9744    1.2344   -2.5491 C   0  0  0  0  0  0  0  0  0  0  0  0
    7.2626    0.8658   -2.2734 C   0  0  0  0  0  0  0  0  0  0  0  0
    7.5473    0.0526   -1.1808 C   0  0  0  0  0  0  0  0  0  0  0  0
    6.5224   -0.3477   -0.4225 N   0  0  0  0  0  0  0  0  0  0  0  0
    4.3498   -1.2801    1.3031 N   0  0  0  0  0  0  0  0  0  0  0  0
    3.1909   -1.5031    1.8367 O   0  0  0  0  0  0  0  0  0  0  0  0
  1  2  2  0
  2  3  1  0
  3  4  1  0
  5  4  1  6
  5  6  1  0
  7  6  1  6
  7  8  1  0
  8  9  2  0
  9 10  1  0
 10 11  2  0
 11 12  1  0
  2 13  1  0
 13 14  1  0
 14 15  1  0
 15 16  1  0
 16 17  1  0
 17 18  2  0
 18 19  1  0
 19 20  1  0
 20 21  2  0
 21 22  1  0
 22 23  2  0
 23 24  1  0
 24 25  2  0
 19 26  2  0
 26 27  1  0
  7  5  1  0
 12  7  1  0
 27 17  1  0
 25 20  1  0
M  END
>  <fragInfo>  (1) 
5 6 7 8 9 10 11 12
1 2 3 13
4
14
15
16
17 18 19 26 27
20 21 22 23 24 25


>  <torsionInfo>  (1) 
4 5 2 0
3 4 1 2
13 14 1 3
14 15 3 4
15 16 4 5
16 17 5 6
19 20 6 7


>  <atomInfo>  (1) 
1  -0.2489093OA
2  0.31429978C 
3  -0.3378536N 
4  0.02282277C 
5  -0.0135378C 
6  -0.0380830C 
7  -0.0031636C 
8  -0.0776520C 
9  -0.0660091C 
10 -0.0665394C 
11 -0.0836722C 
12 -0.0252270C 
13 -0.3381512N 
14 0.01961031C 
15 -0.0268123C 
16 0.02864913C 
17 0.22657393A 
18 -0.1898188NA
19 0.22049981A 
20 0.11113063A 
21 -0.0323542A 
22 -0.0584502A 
23 -0.0437662A 
24 0.02762940A 
25 -0.2527805NA
26 -0.0554144NA
27 -0.3389357OA


$$$$
