
     RDKit          3D

 20 22  0  0  0  0  0  0  0  0999 V2000
   -0.3589    3.3402    1.9505 O   0  0  0  0  0  0  0  0  0  0  0  0
   -0.3856    2.1932    1.4656 C   0  0  0  0  0  0  0  0  0  0  0  0
    0.9345    1.6707    1.2890 N   0  0  0  0  0  0  0  0  0  0  0  0
    1.5316    0.6403    0.5068 C   0  0  0  0  0  0  0  0  0  0  0  0
    2.8946    0.7256    0.6850 C   0  0  0  0  0  0  0  0  0  0  0  0
    3.7478   -0.1483    0.0494 C   0  0  0  0  0  0  0  0  0  0  0  0
    5.4880   -0.0413    0.2754 Cl  0  0  0  0  0  0  0  0  0  0  0  0
    3.1984   -1.1129   -0.7719 C   0  0  0  0  0  0  0  0  0  0  0  0
    1.8317   -1.1893   -0.9433 C   0  0  0  0  0  0  0  0  0  0  0  0
    1.2822   -2.1391   -1.7527 F   0  0  0  0  0  0  0  0  0  0  0  0
    0.9576   -0.3257   -0.3176 C   0  0  0  0  0  0  0  0  0  0  0  0
   -1.6556    1.6437    1.1913 N   0  0  0  0  0  0  0  0  0  0  0  0
   -2.2253    0.5181    0.5028 C   0  0  0  0  0  0  0  0  0  0  0  0
   -3.6842    0.3815    0.6936 C   0  0  0  0  0  0  0  0  0  0  0  0
   -4.3021    0.4335   -0.6877 C   0  0  0  0  0  0  0  0  0  0  0  0
   -2.9724   -1.5291   -0.8065 S   0  0  1  0  0  0  0  0  0  0  0  0
   -1.7310   -0.4156   -0.2594 C   0  0  0  0  0  0  0  0  0  0  0  0
   -0.3849   -0.7098   -0.7350 C   0  0  0  0  0  0  0  0  0  0  0  0
   -0.3512   -1.4672   -1.7340 O   0  0  0  0  0  0  0  0  0  0  0  0
   -3.8152   -2.4684   -0.6015 F   0  0  0  0  0  0  0  0  0  0  0  0
  1  2  2  0
  2  3  1  0
  3  4  1  0
  4  5  2  0
  5  6  1  0
  6  7  1  0
  6  8  2  0
  8  9  1  0
  9 10  1  0
  9 11  2  0
  2 12  1  0
 12 13  1  0
 13 14  1  0
 14 15  1  0
 15 16  1  0
 16 17  1  0
 17 18  1  0
 18 19  2  0
 16 20  1  1
 11  4  1  0
 18 11  1  0
 13 17  2  0
M  END
>  <fragInfo>  (1) 
1 2 3 4 5 6 7 8 9 10 11 12 13 14 15 16 17 18 19 20


>  <torsionInfo>  (1) 


>  <atomInfo>  (1) 
1  -0.2481159OA
2  0.32298503C 
3  -0.3068100N 
4  0.05804991A 
5  -0.0187818A 
6  0.04557739A 
7  -0.0841525Cl
8  -0.0066790A 
9  0.13749191A 
10 -0.2060523F 
11 0.08260493A 
12 -0.3101831N 
13 0.03846862C 
14 -0.0011618C 
15 0.01088755C 
16 -0.0704741S 
17 0.08232583C 
18 0.20622067C 
19 -0.2877317OA
20 -0.1874440F 


$$$$
