
     RDKit          2D

 26 28  0  0  0  0  0  0  0  0999 V2000
    2.4292   -0.7994    0.0000 O   0  0  0  0  0  0  0  0  0  0  0  0
    0.4471    0.1552    0.0000 C   0  0  0  0  0  0  0  0  0  0  0  0
   -0.2508   -0.4013    0.0000 N   0  0  0  0  0  0  0  0  0  0  0  0
   -1.5574   -0.7500    0.0000 C   0  0  0  0  0  0  0  0  0  0  0  0
   -1.5574    0.7500    0.0000 C   0  0  0  0  0  0  0  0  0  0  0  0
   -0.3846    1.6852    0.0000 C   0  0  0  0  0  0  0  0  0  0  0  0
    1.0777    1.3515    0.0000 C   0  0  0  0  0  0  0  0  0  0  0  0
    1.7286    0.0000    0.0000 O   0  0  0  0  0  0  0  0  0  0  0  0
    1.0777   -1.3515    0.0000 C   0  0  0  0  0  0  0  0  0  0  0  0
    1.8593   -1.9495    0.0000 F   0  0  0  0  0  0  0  0  0  0  0  0
   -0.3846   -1.6852    0.0000 C   0  0  0  0  0  0  0  0  0  0  0  0
    0.2388   -2.5462    0.0000 C   0  0  0  0  0  0  0  0  0  0  0  0
    1.6721   -2.9883    0.0000 C   0  0  0  0  0  0  0  0  0  0  0  0
    2.0059   -4.4507    0.0000 C   0  0  0  0  0  0  0  0  0  0  0  0
    3.4393   -4.8928    0.0000 C   0  0  0  0  0  0  0  0  0  0  0  0
    4.5389   -3.8726    0.0000 C   0  0  0  0  0  0  0  0  0  0  0  0
    4.2051   -2.4102    0.0000 C   0  0  0  0  0  0  0  0  0  0  0  0
    2.7717   -1.9680    0.0000 N   0  0  0  0  0  0  0  0  0  0  0  0
   -0.8608   -3.5664    0.0000 C   0  0  0  0  0  0  0  0  0  0  0  0
   -0.5270   -5.0288    0.0000 C   0  0  0  0  0  0  0  0  0  0  0  0
   -1.6266   -6.0491    0.0000 C   0  0  0  0  0  0  0  0  0  0  0  0
   -1.2928   -7.5115    0.0000 N   0  0  0  0  0  0  0  0  0  0  0  0
    0.1405   -7.9536    0.0000 C   0  0  0  0  0  0  0  0  0  0  0  0
    0.4743   -9.4160    0.0000 Cl  0  0  0  0  0  0  0  0  0  0  0  0
   -2.3924   -8.5317    0.0000 C   0  0  0  0  0  0  0  0  0  0  0  0
   -2.0586   -9.9941    0.0000 F   0  0  0  0  0  0  0  0  0  0  0  0
  1  2  2  0
  2  3  1  0
  3  4  1  0
  4  5  2  0
  5  6  1  0
  6  7  2  0
  7  8  1  0
  8  9  1  0
  9 10  1  0
  9 11  2  0
  3 12  1  0
 12 13  1  0
 13 14  2  0
 14 15  1  0
 15 16  2  0
 16 17  1  0
 17 18  2  0
 12 19  1  0
 19 20  1  0
 20 21  1  0
 21 22  1  0
 22 23  1  0
 23 24  1  0
 22 25  1  0
 25 26  1  0
  7  2  1  0
 11  4  1  0
 18 13  1  0
M  END
>  <fragInfo>  (1) 
1 2 3 4 5 6 7 8 9 10 11
12
13 14 15 16 17 18
19
20
21
22
23 24
25 26


>  <torsionInfo>  (1) 
3 12 0 1
12 13 1 2
12 19 1 3
19 20 3 4
20 21 4 5
21 22 5 6
22 23 6 7
22 25 6 8


>  <atomInfo>  (1) 
1  -0.2650442OA
2  0.29422501A 
3  -0.2963884N 
4  0.05117854A 
5  -0.0341265A 
6  -0.0113231A 
7  0.19498392A 
8  -0.4256757OA
9  0.27992393C 
10 -0.1642101F 
11 0.03502555C 
12 0.07944426C 
13 0.06330565A 
14 -0.0384080A 
15 -0.0588463A 
16 -0.0437944A 
17 0.02715954A 
18 -0.2590906NA
19 -0.0251738C 
20 -0.0379177C 
21 0.00184767C 
22 -0.2626355NA
23 0.07589051C 
24 -0.1094367Cl
25 0.14346140C 
26 -0.2337550F 


$$$$
