
     RDKit          3D

 11 11  0  0  0  0  0  0  0  0999 V2000
    3.7244    0.0561    0.2092 O   0  0  0  0  0  0  0  0  0  0  0  0
    2.7922    0.0056   -0.6232 C   0  0  0  0  0  0  0  0  0  0  0  0
    1.4397   -0.1691   -0.2274 N   0  0  0  0  0  0  0  0  0  0  0  0
    0.4755   -0.2099   -1.2704 C   0  0  0  0  0  0  0  0  0  0  0  0
   -0.8328   -0.0390   -1.1911 C   0  0  0  0  0  0  0  0  0  0  0  0
   -1.5874    0.2366    0.0243 C   0  0  0  0  0  0  0  0  0  0  0  0
   -2.8999    0.0109    0.0240 C   0  0  0  0  0  0  0  0  0  0  0  0
   -3.4324   -0.4640   -1.1260 F   0  0  0  0  0  0  0  0  0  0  0  0
    1.2516   -0.2806    1.2016 C   0  0  0  0  0  0  0  0  0  0  0  0
    0.1287    0.5002    1.7154 C   0  0  0  0  0  0  0  0  0  0  0  0
   -1.0596    0.7407    1.2636 N   0  0  0  0  0  0  0  0  0  0  0  0
  1  2  2  0
  2  3  1  0
  3  4  1  0
  4  5  2  0
  5  6  1  0
  6  7  2  3
  7  8  1  0
  3  9  1  0
  9 10  1  0
 10 11  2  0
 11  6  1  0
M  END
>  <fragInfo>  (1) 
3 4 5 6 7 8 9 10 11
1 2


>  <torsionInfo>  (1) 
2 3 1 0


>  <atomInfo>  (1) 
1  -0.2783056OA
2  0.21350920C 
3  -0.3162066N 
4  0.00914456C 
5  -0.0176613C 
6  0.09228501C 
7  0.11233704C 
8  -0.2131721F 
9  0.06029919C 
10 0.02495225C 
11 -0.2568802NA


$$$$
