
     RDKit          3D

 27 29  0  0  0  0  0  0  0  0999 V2000
   -1.6660   -0.6723    0.3042 O   0  0  0  0  0  0  0  0  0  0  0  0
   -1.4564   -0.2858   -0.8605 C   0  0  0  0  0  0  0  0  0  0  0  0
   -2.2196    0.7989   -1.3629 N   0  0  0  0  0  0  0  0  0  0  0  0
   -3.1863    1.3897   -0.5092 C   0  0  0  0  0  0  0  0  0  0  0  0
   -3.9190    2.4429   -1.0144 C   0  0  0  0  0  0  0  0  0  0  0  0
   -4.8857    3.1107   -0.3071 C   0  0  0  0  0  0  0  0  0  0  0  0
   -5.7840    4.4462   -1.0107 Cl  0  0  0  0  0  0  0  0  0  0  0  0
   -5.1235    2.6806    0.9981 C   0  0  0  0  0  0  0  0  0  0  0  0
   -4.4117    1.6313    1.5387 C   0  0  0  0  0  0  0  0  0  0  0  0
   -4.6984    1.2715    2.8101 F   0  0  0  0  0  0  0  0  0  0  0  0
   -3.4513    0.9986    0.7774 C   0  0  0  0  0  0  0  0  0  0  0  0
   -0.4577   -0.9607   -1.6196 N   0  0  0  0  0  0  0  0  0  0  0  0
    0.3136   -2.0522   -1.1206 C   0  0  0  0  0  0  0  0  0  0  0  0
    1.1275   -1.6821    0.1026 C   0  0  1  0  0  0  0  0  0  0  0  0
    1.9087   -2.9296    0.5431 C   0  0  0  0  0  0  0  0  0  0  0  0
    1.8926   -4.2779    1.5844 S   0  0  0  0  0  0  0  0  0  0  0  0
    3.4980   -5.0208    1.0979 C   0  0  0  0  0  0  0  0  0  0  0  0
    3.8834   -4.0385    0.0938 C   0  0  0  0  0  0  0  0  0  0  0  0
    3.0729   -3.0337   -0.1419 C   0  0  0  0  0  0  0  0  0  0  0  0
    3.1211   -1.8235   -1.0979 C   0  0  0  0  0  0  0  0  0  0  0  0
    2.2782   -0.8117   -0.3543 C   0  0  1  0  0  0  0  0  0  0  0  0
    1.8240    0.1465   -1.3679 N   0  0  0  0  0  0  0  0  0  0  0  0
    2.7174    1.0779   -1.9571 C   0  0  0  0  0  0  0  0  0  0  0  0
    3.7140    1.6416   -1.2822 C   0  0  0  0  0  0  0  0  0  0  0  0
    3.9526    1.3189    0.1619 C   0  0  0  0  0  0  0  0  0  0  0  0
    3.8412    2.5048    0.8793 O   0  0  0  0  0  0  0  0  0  0  0  0
    4.1141    2.1286    2.5220 Cl  0  0  0  0  0  0  0  0  0  0  0  0
  1  2  2  0
  2  3  1  0
  3  4  1  0
  4  5  2  0
  5  6  1  0
  6  7  1  0
  6  8  2  0
  8  9  1  0
  9 10  1  0
  9 11  2  0
  2 12  1  0
 12 13  1  0
 14 13  1  6
 14 15  1  0
 15 16  1  0
 16 17  1  0
 17 18  2  0
 18 19  1  0
 19 20  1  0
 20 21  1  0
 21 22  1  6
 22 23  1  0
 23 24  2  3
 24 25  1  0
 25 26  1  0
 26 27  1  0
 11  4  1  0
 21 14  1  0
 15 19  2  0
M  END
>  <fragInfo>  (1) 
4 5 6 7 8 9 10 11
1 2 3 12
13
14 15 16 17 18 19 20 21
22
23 24
25
26 27


>  <torsionInfo>  (1) 
3 4 1 0
12 13 1 2
13 14 2 3
21 22 3 4
22 23 4 5
24 25 5 6
25 26 6 7


>  <atomInfo>  (1) 
1  -0.2485080OA
2  0.31875907C 
3  -0.3078595N 
4  0.04676207A 
5  -0.0195457A 
6  0.04552739A 
7  -0.0841533Cl
8  -0.0074594A 
9  0.12626279A 
10 -0.2068729F 
11 -0.0024690A 
12 -0.3371414N 
13 0.02880773C 
14 0.03153088C 
15 0.01471411A 
16 -0.1481908S 
17 -0.0087431A 
18 -0.0479135A 
19 -0.0315933A 
20 -0.0057375C 
21 0.03895190C 
22 -0.3872925N 
23 -0.0050581C 
24 -0.0413815C 
25 0.08804738C 
26 -0.2749880OA
27 0.06127308Cl


$$$$
