
     RDKit          3D

 21 23  0  0  0  0  0  0  0  0999 V2000
    0.2280    3.8270    1.1020 O   0  0  0  0  0  0  0  0  0  0  0  0
    0.0503    2.6095    0.8703 C   0  0  0  0  0  0  0  0  0  0  0  0
    1.2923    1.8845    0.8483 N   0  0  0  0  0  0  0  0  0  0  0  0
    1.7595    0.6899    0.2049 C   0  0  0  0  0  0  0  0  0  0  0  0
    3.1367    0.7618    0.1628 C   0  0  0  0  0  0  0  0  0  0  0  0
    3.8786   -0.2513   -0.4028 C   0  0  0  0  0  0  0  0  0  0  0  0
    5.6326   -0.1981   -0.4762 Cl  0  0  0  0  0  0  0  0  0  0  0  0
    3.1815   -1.3252   -0.9171 C   0  0  0  0  0  0  0  0  0  0  0  0
    1.7917   -1.3930   -0.8721 C   0  0  0  0  0  0  0  0  0  0  0  0
    1.1114   -2.4483   -1.3777 F   0  0  0  0  0  0  0  0  0  0  0  0
    1.0523   -0.3771   -0.3052 C   0  0  0  0  0  0  0  0  0  0  0  0
   -1.3019    2.2342    0.6872 N   0  0  0  0  0  0  0  0  0  0  0  0
   -2.0448    1.0041    0.4696 C   0  0  0  0  0  0  0  0  0  0  0  0
   -3.4397    1.1134    0.8110 C   0  0  0  0  0  0  0  0  0  0  0  0
   -4.3048    0.1998    0.0275 C   0  0  0  0  0  0  0  0  0  0  0  0
   -3.0383   -1.2823   -0.0184 S   0  0  1  0  0  0  0  0  0  0  0  0
   -1.6217   -0.1273    0.0375 C   0  0  0  0  0  0  0  0  0  0  0  0
   -0.3549   -0.7473   -0.4153 C   0  0  0  0  0  0  0  0  0  0  0  0
   -0.5335   -1.8306   -1.0294 O   0  0  0  0  0  0  0  0  0  0  0  0
   -3.3166   -2.0683    1.7738 Cl  0  0  0  0  0  0  0  0  0  0  0  0
   -3.1587   -2.2754   -1.1809 F   0  0  0  0  0  0  0  0  0  0  0  0
  1  2  2  0
  2  3  1  0
  3  4  1  0
  4  5  2  0
  5  6  1  0
  6  7  1  0
  6  8  2  0
  8  9  1  0
  9 10  1  0
  9 11  2  0
  2 12  1  0
 12 13  1  0
 13 14  1  0
 14 15  1  0
 15 16  1  0
 16 17  1  0
 17 18  1  0
 18 19  2  0
 16 20  1  0
 16 21  1  6
 11  4  1  0
 18 11  1  0
 13 17  2  0
M  END
>  <fragInfo>  (1) 
1 2 3 4 5 6 7 8 9 10 11 12 13 14 15 16 17 18 19 20 21


>  <torsionInfo>  (1) 


>  <atomInfo>  (1) 
1  -0.2481159OA
2  0.32298582C 
3  -0.3068100N 
4  0.05805086A 
5  -0.0187818A 
6  0.04557739A 
7  -0.0841525Cl
8  -0.0066790A 
9  0.13749285A 
10 -0.2060523F 
11 0.08266011A 
12 -0.3101298N 
13 0.03994853C 
14 0.00026304C 
15 0.02699305C 
16 0.02036994S 
17 0.09916204C 
18 0.20764184C 
19 -0.2876750OA
20 -0.0291215Cl
21 -0.1690987F 


$$$$
