
     RDKit          3D

 27 30  0  0  0  0  0  0  0  0999 V2000
   -0.3965    1.1322   -1.7731 O   0  0  0  0  0  0  0  0  0  0  0  0
   -0.3160    0.7465   -0.5835 C   0  0  0  0  0  0  0  0  0  0  0  0
    0.7274    0.6241    0.3560 N   0  0  0  0  0  0  0  0  0  0  0  0
    1.9357    1.2736    0.6434 C   0  0  0  0  0  0  0  0  0  0  0  0
    2.0389    2.3151    1.5602 C   0  0  0  0  0  0  0  0  0  0  0  0
    3.2268    2.9527    1.8421 C   0  0  0  0  0  0  0  0  0  0  0  0
    4.3806    2.5629    1.2027 C   0  0  0  0  0  0  0  0  0  0  0  0
    5.5867    3.1395    1.4256 F   0  0  0  0  0  0  0  0  0  0  0  0
    4.3293    1.5301    0.2809 C   0  0  0  0  0  0  0  0  0  0  0  0
    5.8047    1.0283   -0.5396 Cl  0  0  0  0  0  0  0  0  0  0  0  0
    3.1275    0.9081    0.0167 C   0  0  0  0  0  0  0  0  0  0  0  0
    0.0131   -0.4900    0.9231 C   0  0  2  0  0  0  0  0  0  0  0  0
    0.3526   -1.7256    0.1788 C   0  0  0  0  0  0  0  0  0  0  0  0
    0.4048   -1.8389   -1.1890 C   0  0  0  0  0  0  0  0  0  0  0  0
    0.7309   -3.0270   -1.8240 C   0  0  0  0  0  0  0  0  0  0  0  0
    1.0129   -4.1339   -1.0560 C   0  0  0  0  0  0  0  0  0  0  0  0
    0.9564   -4.0043    0.3134 C   0  0  0  0  0  0  0  0  0  0  0  0
    0.6354   -2.8315    0.8866 N   0  0  0  0  0  0  0  0  0  0  0  0
   -1.2236    0.2193    0.4808 C   0  0  2  0  0  0  0  0  0  0  0  0
   -2.3436   -0.6449   -0.0286 C   0  0  1  0  0  0  0  0  0  0  0  0
   -3.1625   -1.0917    1.1649 C   0  0  0  0  0  0  0  0  0  0  0  0
   -3.6054    0.1006    1.8548 N   0  0  0  0  0  0  0  0  0  0  0  0
   -4.4268    0.8245    1.0178 N   0  0  0  0  0  0  0  0  0  0  0  0
   -4.4211    0.4576   -0.3073 N   0  0  0  0  0  0  0  0  0  0  0  0
   -5.4726   -0.4230   -0.7134 C   0  0  0  0  0  0  0  0  0  0  0  0
   -6.7099    0.1855   -0.4839 F   0  0  0  0  0  0  0  0  0  0  0  0
   -3.1856    0.2103   -0.8650 N   0  0  0  0  0  0  0  0  0  0  0  0
  1  2  2  0
  2  3  1  0
  3  4  1  0
  4  5  2  0
  5  6  1  0
  6  7  2  0
  7  8  1  0
  7  9  1  0
  9 10  1  0
  9 11  2  0
  3 12  1  0
 12 13  1  6
 13 14  2  0
 14 15  1  0
 15 16  2  0
 16 17  1  0
 17 18  2  0
 12 19  1  0
 19 20  1  0
 20 21  1  1
 21 22  1  0
 22 23  1  0
 23 24  1  0
 24 25  1  0
 25 26  1  0
 24 27  1  0
 19  2  1  6
 11  4  1  0
 18 13  1  0
 27 20  1  0
M  END
>  <fragInfo>  (1) 
4 5 6 7 8 9 10 11
1 2 3 12 19
13 14 15 16 17 18
20 21 22 23 24 27
25 26


>  <torsionInfo>  (1) 
3 4 1 0
12 13 1 2
19 20 1 3
24 25 3 4


>  <atomInfo>  (1) 
1  -0.2739979OA
2  0.23445576C 
3  -0.3020510N 
4  0.04611858A 
5  -0.0352702A 
6  -0.0226871A 
7  0.14143861A 
8  -0.2053590F 
9  0.07835147A 
10 -0.0810568Cl
11 -0.0165781A 
12 0.09216631C 
13 0.06417627A 
14 -0.0383798A 
15 -0.0588459A 
16 -0.0437944A 
17 0.02716005A 
18 -0.2590621NA
19 0.08304043C 
20 0.05092738C 
21 0.02907380C 
22 -0.2411551NA
23 -0.1749704NA
24 -0.1347975NA
25 0.17047486C 
26 -0.2308902F 
27 -0.2325448NA


$$$$
