
     RDKit          3D

 21 22  0  0  0  0  0  0  0  0999 V2000
    1.6062   -0.0886    2.3138 O   0  0  0  0  0  0  0  0  0  0  0  0
    0.7335    0.6662    1.7413 C   0  0  0  0  0  0  0  0  0  0  0  0
   -0.6094    0.5117    1.6333 N   0  0  0  0  0  0  0  0  0  0  0  0
   -1.5387   -0.2544    0.9204 C   0  0  0  0  0  0  0  0  0  0  0  0
   -2.8508   -0.3719    1.4315 C   0  0  0  0  0  0  0  0  0  0  0  0
   -3.8363   -1.0962    0.8393 C   0  0  0  0  0  0  0  0  0  0  0  0
   -5.4649   -1.2270    1.4965 Cl  0  0  0  0  0  0  0  0  0  0  0  0
   -3.5632   -1.7721   -0.3417 C   0  0  0  0  0  0  0  0  0  0  0  0
   -2.2883   -1.6731   -0.8623 C   0  0  0  0  0  0  0  0  0  0  0  0
   -2.0996   -2.3733   -2.0165 F   0  0  0  0  0  0  0  0  0  0  0  0
   -1.2847   -0.9313   -0.2543 C   0  0  0  0  0  0  0  0  0  0  0  0
    1.3552    1.8258    1.1555 N   0  0  0  0  0  0  0  0  0  0  0  0
    1.0556    2.4047   -0.1066 C   0  0  0  0  0  0  0  0  0  0  0  0
    2.2972    2.3082   -1.0060 C   0  0  0  0  0  0  0  0  0  0  0  0
    3.1050    1.1070   -0.5801 C   0  0  1  0  0  0  0  0  0  0  0  0
    2.3392   -0.1344   -0.9860 C   0  0  0  0  0  0  0  0  0  0  0  0
    0.8848    0.2608   -1.0865 C   0  0  0  0  0  0  0  0  0  0  0  0
    0.0045   -0.9224   -0.9478 C   0  0  0  0  0  0  0  0  0  0  0  0
    0.3901   -2.0035   -1.4645 O   0  0  0  0  0  0  0  0  0  0  0  0
    4.4743    1.1323   -1.2088 C   0  0  0  0  0  0  0  0  0  0  0  0
    5.2901    2.6314   -0.6705 Cl  0  0  0  0  0  0  0  0  0  0  0  0
  1  2  2  0
  2  3  1  0
  3  4  1  0
  4  5  2  0
  5  6  1  0
  6  7  1  0
  6  8  2  0
  8  9  1  0
  9 10  1  0
  9 11  2  0
  2 12  1  0
 12 13  1  0
 13 14  1  0
 14 15  1  0
 15 16  1  0
 16 17  1  0
 17 18  1  0
 18 19  2  0
 15 20  1  6
 20 21  1  0
 11  4  1  0
 18 11  1  0
M  END
>  <fragInfo>  (1) 
1 2 3 4 5 6 7 8 9 10 11 12 13 14 15 16 17 18 19
20 21


>  <torsionInfo>  (1) 
15 20 0 1


>  <atomInfo>  (1) 
1  -0.2485080OA
2  0.31875903C 
3  -0.3071150N 
4  0.05763642A 
5  -0.0187957A 
6  0.04557694A 
7  -0.0841525Cl
8  -0.0066931A 
9  0.13709133A 
10 -0.2060668F 
11 0.07698083A 
12 -0.3378566N 
13 0.01943385C 
14 -0.0316261C 
15 -0.0256853C 
16 -0.0419490C 
17 0.01131844C 
18 0.16743591C 
19 -0.2939952OA
20 0.02520593C 
21 -0.1264134Cl


$$$$
