
     RDKit          3D

 29 33  0  0  0  0  0  0  0  0999 V2000
    2.3476   -0.2644    0.7141 O   0  0  0  0  0  0  0  0  0  0  0  0
    2.1275    0.1542   -0.4716 C   0  0  0  0  0  0  0  0  0  0  0  0
    2.9611   -0.2350   -1.5556 N   0  0  0  0  0  0  0  0  0  0  0  0
    4.0814   -1.1242   -1.3012 C   0  0  2  0  0  0  0  0  0  0  0  0
    4.0733   -1.9776   -0.0955 C   0  0  0  0  0  0  0  0  0  0  0  0
    4.8055   -0.7034    0.0190 C   0  0  1  0  0  0  0  0  0  0  0  0
    6.2672   -0.6119   -0.0148 C   0  0  0  0  0  0  0  0  0  0  0  0
    6.9863   -1.0851    1.0581 C   0  0  0  0  0  0  0  0  0  0  0  0
    8.3709   -1.0276    1.0888 C   0  0  0  0  0  0  0  0  0  0  0  0
    9.0397   -0.4768    0.0050 C   0  0  0  0  0  0  0  0  0  0  0  0
    8.3470    0.0050   -1.0831 C   0  0  0  0  0  0  0  0  0  0  0  0
    6.9789   -0.0769   -1.0609 C   0  0  0  0  0  0  0  0  0  0  0  0
    1.0164    1.0212   -0.6516 N   0  0  0  0  0  0  0  0  0  0  0  0
    0.2008    1.3868    0.4853 C   0  0  0  0  0  0  0  0  0  0  0  0
   -0.9143    2.3098    0.0498 C   0  0  2  0  0  0  0  0  0  0  0  0
   -1.8165    1.6916   -0.9630 C   0  0  1  0  0  0  0  0  0  0  0  0
   -3.1910    1.3799   -0.4894 C   0  0  0  0  0  0  0  0  0  0  0  0
   -3.7969    0.1794   -0.4627 N   0  0  0  0  0  0  0  0  0  0  0  0
   -5.0417    0.2973    0.0346 C   0  0  0  0  0  0  0  0  0  0  0  0
   -6.0102   -0.7901    0.2203 C   0  0  0  0  0  0  0  0  0  0  0  0
   -7.2484   -0.5520    0.7363 C   0  0  0  0  0  0  0  0  0  0  0  0
   -8.1709   -1.5826    0.9149 C   0  0  0  0  0  0  0  0  0  0  0  0
   -7.7745   -2.8620    0.5447 C   0  0  0  0  0  0  0  0  0  0  0  0
   -6.5211   -3.0970    0.0235 C   0  0  0  0  0  0  0  0  0  0  0  0
   -5.6881   -2.0506   -0.1182 N   0  0  0  0  0  0  0  0  0  0  0  0
   -5.1792    1.6035    0.3109 N   0  0  0  0  0  0  0  0  0  0  0  0
   -4.0730    2.2379   -0.0044 O   0  0  0  0  0  0  0  0  0  0  0  0
   -1.7270    2.9638   -1.7966 C   0  0  0  0  0  0  0  0  0  0  0  0
   -0.4508    3.2866   -1.0309 C   0  0  0  0  0  0  0  0  0  0  0  0
  1  2  2  0
  2  3  1  0
  4  3  1  1
  4  5  1  0
  5  6  1  0
  6  7  1  6
  7  8  2  0
  8  9  1  0
  9 10  2  0
 10 11  1  0
 11 12  2  0
  2 13  1  0
 13 14  1  0
 15 14  1  6
 15 16  1  0
 16 17  1  1
 17 18  2  0
 18 19  1  0
 19 20  1  0
 20 21  2  0
 21 22  1  0
 22 23  2  0
 23 24  1  0
 24 25  2  0
 19 26  2  0
 26 27  1  0
 16 28  1  0
 28 29  1  0
  6  4  1  0
 12  7  1  0
 29 15  1  0
 27 17  1  0
 25 20  1  0
M  END
>  <fragInfo>  (1) 
7 8 9 10 11 12
1 2 3 13
4 5 6
14
15 16 28 29
17 18 19 26 27
20 21 22 23 24 25


>  <torsionInfo>  (1) 
6 7 2 0
3 4 1 2
13 14 1 3
14 15 3 4
16 17 4 5
19 20 5 6


>  <atomInfo>  (1) 
1  -0.2488999OA
2  0.31453693C 
3  -0.3347946N 
4  0.03813201C 
5  -0.0232215C 
6  0.00622061C 
7  -0.0427878A 
8  -0.0586825A 
9  -0.0619824A 
10 -0.0622483A 
11 -0.0619824A 
12 -0.0586825A 
13 -0.3378544N 
14 0.02271350C 
15 -0.0121641C 
16 0.04292933C 
17 0.22996878A 
18 -0.1895556NA
19 0.22050884A 
20 0.11113079A 
21 -0.0323542A 
22 -0.0584502A 
23 -0.0437662A 
24 0.02762940A 
25 -0.2527805NA
26 -0.0554004NA
27 -0.3386112OA
28 -0.0409074C 
29 -0.0472263C 


$$$$
