
     RDKit          3D

 20 21  0  0  0  0  0  0  0  0999 V2000
    1.4919   -2.4102   -2.5313 O   0  0  0  0  0  0  0  0  0  0  0  0
    1.0192   -1.9564   -1.4524 C   0  0  0  0  0  0  0  0  0  0  0  0
   -0.2897   -1.6991   -1.1431 N   0  0  0  0  0  0  0  0  0  0  0  0
   -1.0454   -0.8834   -0.3516 C   0  0  0  0  0  0  0  0  0  0  0  0
   -2.0341   -1.5025    0.4098 C   0  0  0  0  0  0  0  0  0  0  0  0
   -2.8872   -0.8435    1.2558 C   0  0  0  0  0  0  0  0  0  0  0  0
   -4.1165   -1.6799    2.1919 Cl  0  0  0  0  0  0  0  0  0  0  0  0
   -2.7781    0.5020    1.3742 C   0  0  0  0  0  0  0  0  0  0  0  0
   -1.8169    1.1712    0.6446 C   0  0  0  0  0  0  0  0  0  0  0  0
   -1.7634    2.9130    0.8699 Cl  0  0  0  0  0  0  0  0  0  0  0  0
   -0.9485    0.4923   -0.2179 C   0  0  0  0  0  0  0  0  0  0  0  0
    1.9933   -1.6888   -0.4524 N   0  0  0  0  0  0  0  0  0  0  0  0
    1.7102   -1.3823    0.9258 C   0  0  0  0  0  0  0  0  0  0  0  0
    1.5929    0.1054    1.1750 C   0  0  0  0  0  0  0  0  0  0  0  0
    2.8201    0.7512    0.5599 C   0  0  0  0  0  0  0  0  0  0  0  0
    2.4565    1.6100   -0.6191 C   0  0  2  0  0  0  0  0  0  0  0  0
    1.3560    0.8754   -1.3878 C   0  0  0  0  0  0  0  0  0  0  0  0
    0.0153    1.3201   -0.9301 C   0  0  0  0  0  0  0  0  0  0  0  0
   -0.2738    2.5215   -1.2004 O   0  0  0  0  0  0  0  0  0  0  0  0
    3.4979    1.7842   -1.4966 F   0  0  0  0  0  0  0  0  0  0  0  0
  1  2  2  0
  2  3  1  0
  3  4  1  0
  4  5  2  0
  5  6  1  0
  6  7  1  0
  6  8  2  0
  8  9  1  0
  9 10  1  0
  9 11  2  0
  2 12  1  0
 12 13  1  0
 13 14  1  0
 14 15  1  0
 15 16  1  0
 16 17  1  0
 17 18  1  0
 18 19  2  0
 16 20  1  6
 11  4  1  0
 18 11  1  0
M  END
>  <fragInfo>  (1) 
1 2 3 4 5 6 7 8 9 10 11 12 13 14 15 16 17 18 19 20


>  <torsionInfo>  (1) 


>  <atomInfo>  (1) 
1  -0.2485080OA
2  0.31875805C 
3  -0.3071692N 
4  0.05617798A 
5  -0.0189029A 
6  0.04414752A 
7  -0.0842072Cl
8  -0.0239023A 
9  0.05494851A 
10 -0.0834127Cl
11 0.06000071A 
12 -0.3378661N 
13 0.01923187C 
14 -0.0328519C 
15 -0.0195513C 
16 0.10741575C 
17 0.04236686C 
18 0.16886775C 
19 -0.2939343OA
20 -0.2469966F 


$$$$
