
     RDKit          3D

 12 11  0  0  0  0  0  0  0  0999 V2000
   -3.2992    3.7529   -2.4855 N   0  0  0  0  0  0  0  0  0  0  0  0
   -2.9485    3.0561   -1.6300 C   0  0  0  0  0  0  0  0  0  0  0  0
   -2.5294    2.1939   -0.5477 C   0  0  0  0  0  0  0  0  0  0  0  0
   -1.4801    1.4337   -0.7497 C   0  0  0  0  0  0  0  0  0  0  0  0
   -1.0077    0.5536    0.2790 C   0  0  0  0  0  0  0  0  0  0  0  0
    0.0523   -0.1955    0.0356 C   0  0  0  0  0  0  0  0  0  0  0  0
    0.5225   -1.0883    1.0949 C   0  0  0  0  0  0  0  0  0  0  0  0
    1.5828   -1.8652    0.9089 C   0  0  0  0  0  0  0  0  0  0  0  0
    1.9672   -2.7005    1.9942 N   0  0  0  0  0  0  0  0  0  0  0  0
    3.0179   -2.2752    2.9141 C   0  0  0  0  0  0  0  0  0  0  0  0
    2.3496   -1.8804   -0.3638 C   0  0  0  0  0  0  0  0  0  0  0  0
    1.7726   -0.9849   -1.2468 F   0  0  0  0  0  0  0  0  0  0  0  0
  1  2  3  0
  2  3  1  0
  3  4  2  3
  4  5  1  0
  5  6  2  3
  6  7  1  0
  7  8  2  3
  8  9  1  0
  9 10  1  0
  8 11  1  0
 11 12  1  0
M  END
>  <fragInfo>  (1) 
1 2 3 4
5 6
7 8
9 10
11 12


>  <torsionInfo>  (1) 
4 5 0 1
6 7 1 2
8 9 2 3
8 11 2 4


>  <atomInfo>  (1) 
1  -0.1930989NA
2  0.09115216C 
3  0.01568920C 
4  -0.0517705C 
5  -0.0614938C 
6  -0.0604295C 
7  -0.0404899C 
8  0.04207220C 
9  -0.3892792N 
10 0.00310692C 
11 0.12885699C 
12 -0.2443325F 


$$$$
