
     RDKit          3D

 25 29  0  0  0  0  0  0  0  0999 V2000
   -1.4230   -1.8461    3.3794 O   0  0  0  0  0  0  0  0  0  0  0  0
   -1.1894   -1.3052    2.2571 C   0  0  0  0  0  0  0  0  0  0  0  0
   -2.3239   -0.5989    1.7691 N   0  0  0  0  0  0  0  0  0  0  0  0
   -2.6374    0.1241    0.5855 C   0  0  0  0  0  0  0  0  0  0  0  0
   -3.8559    0.7876    0.7984 C   0  0  0  0  0  0  0  0  0  0  0  0
   -4.3763    1.5724   -0.2057 C   0  0  0  0  0  0  0  0  0  0  0  0
   -5.8959    2.4337   -0.0100 Cl  0  0  0  0  0  0  0  0  0  0  0  0
   -3.7097    1.7107   -1.4173 C   0  0  0  0  0  0  0  0  0  0  0  0
   -2.4991    1.0506   -1.6268 C   0  0  0  0  0  0  0  0  0  0  0  0
   -1.5773    1.1669   -3.1022 Cl  0  0  0  0  0  0  0  0  0  0  0  0
   -2.0012    0.2780   -0.6190 C   0  0  0  0  0  0  0  0  0  0  0  0
    0.1654   -1.5841    1.8348 N   0  0  0  0  0  0  0  0  0  0  0  0
    0.8585   -1.3578    0.6498 C   0  0  0  0  0  0  0  0  0  0  0  0
    2.2786   -1.7766    0.5483 C   0  0  1  0  0  0  0  0  0  0  0  0
    2.4186   -0.9287   -0.5708 C   0  0  2  0  0  0  0  0  0  0  0  0
    1.6579   -0.8099   -1.4975 C   0  0  0  0  0  0  0  0  0  0  0  0
    0.4451   -0.8103   -0.5356 C   0  0  0  0  0  0  0  0  0  0  0  0
   -0.7255   -0.2603   -1.1093 C   0  0  0  0  0  0  0  0  0  0  0  0
   -0.6416   -0.2246   -2.3917 O   0  0  0  0  0  0  0  0  0  0  0  0
    3.2477   -1.1331   -1.1572 C   0  0  0  0  0  0  0  0  0  0  0  0
    3.5672   -1.1785    0.5711 N   0  0  0  0  0  0  0  0  0  0  0  0
    4.7571   -0.6742    1.0486 C   0  0  0  0  0  0  0  0  0  0  0  0
    4.9021    0.8103    0.9207 C   0  0  0  0  0  0  0  0  0  0  0  0
    4.1993    1.4184    0.0191 N   0  0  0  0  0  3  0  0  0  0  0  0
    4.3586    3.1358   -0.1386 Cl  0  0  0  0  0  0  0  0  0  0  0  0
  1  2  2  0
  2  3  1  0
  3  4  1  0
  4  5  2  0
  5  6  1  0
  6  7  1  0
  6  8  2  0
  8  9  1  0
  9 10  1  0
  9 11  2  0
  2 12  1  0
 12 13  1  0
 13 14  1  0
 14 15  1  0
 15 16  1  6
 16 17  1  0
 17 18  1  0
 18 19  2  0
 15 20  1  0
 20 21  1  0
 21 22  1  0
 22 23  1  0
 23 24  2  3
 24 25  1  0
 11  4  1  0
 18 11  1  0
 13 17  2  0
 14 21  1  1
 16 20  2  0
M  CHG  1  24   1
M  RAD  1  24   2
M  END
>  <fragInfo>  (1) 
1 2 3 4 5 6 7 8 9 10 11 12 13 14 15 16 17 18 19 20 21
22
23 24 25


>  <torsionInfo>  (1) 
21 22 0 1
22 23 1 2


>  <atomInfo>  (1) 
1  -0.2481148OA
2  0.32304068C 
3  -0.3068637N 
4  0.05656716A 
5  -0.0188894A 
6  0.04414796A 
7  -0.0842072Cl
8  -0.0238890A 
9  0.05532574A 
10 -0.0833989Cl
11 0.06495194A 
12 -0.3085808N 
13 0.05459373C 
14 0.08282421C 
15 0.05288946C 
16 -0.0035540C 
17 0.04997305C 
18 0.19833146C 
19 -0.2883845OA
20 0.02941626C 
21 -0.3542536N 
22 0.10471518C 
23 0.25937869C 
24 0.15585675N 
25 0.34190378Cl


$$$$
