
     RDKit          3D

 11 11  0  0  0  0  0  0  0  0999 V2000
   -3.4709   -1.0410   -0.2843 O   0  0  0  0  0  0  0  0  0  0  0  0
   -2.9351    0.0959   -0.3137 C   0  0  0  0  0  0  0  0  0  0  0  0
   -1.5691    0.2307    0.1312 N   0  0  0  0  0  0  0  0  0  0  0  0
   -0.9365   -0.9812    0.5770 C   0  0  0  0  0  0  0  0  0  0  0  0
    0.3834   -1.2369    0.5629 C   0  0  0  0  0  0  0  0  0  0  0  0
    1.4562   -0.3654    0.1030 C   0  0  0  0  0  0  0  0  0  0  0  0
    2.7042   -0.7128    0.3672 C   0  0  0  0  0  0  0  0  0  0  0  0
    3.7655    0.0012   -0.0007 F   0  0  0  0  0  0  0  0  0  0  0  0
   -0.9886    1.5339    0.0862 C   0  0  0  0  0  0  0  0  0  0  0  0
    0.2814    1.6398   -0.6197 C   0  0  0  0  0  0  0  0  0  0  0  0
    1.3097    0.8357   -0.6091 N   0  0  0  0  0  0  0  0  0  0  0  0
  1  2  2  0
  2  3  1  0
  3  4  1  0
  4  5  2  0
  5  6  1  0
  6  7  2  3
  7  8  1  0
  3  9  1  0
  9 10  1  0
 10 11  2  0
 11  6  1  0
M  END
>  <fragInfo>  (1) 
3 4 5 6 7 8 9 10 11
1 2


>  <torsionInfo>  (1) 
2 3 1 0


>  <atomInfo>  (1) 
1  -0.2783056OA
2  0.21350920C 
3  -0.3162066N 
4  0.00914456C 
5  -0.0176613C 
6  0.09228501C 
7  0.11233704C 
8  -0.2131721F 
9  0.06029919C 
10 0.02495225C 
11 -0.2568802NA


$$$$
