
     RDKit          3D

 23 25  0  0  0  0  0  0  0  0999 V2000
   -0.2236    2.9484   -1.0092 O   0  0  0  0  0  0  0  0  0  0  0  0
   -0.5757    1.7661   -0.7653 C   0  0  0  0  0  0  0  0  0  0  0  0
    0.2139    0.5926   -0.6209 N   0  0  0  0  0  0  0  0  0  0  0  0
    1.5202    0.3487   -0.1280 C   0  0  0  0  0  0  0  0  0  0  0  0
    1.9828    0.8128    1.0961 C   0  0  0  0  0  0  0  0  0  0  0  0
    3.2601    0.5625    1.5541 C   0  0  0  0  0  0  0  0  0  0  0  0
    4.1325   -0.1713    0.7939 C   0  0  0  0  0  0  0  0  0  0  0  0
    5.3803   -0.4009    1.2777 F   0  0  0  0  0  0  0  0  0  0  0  0
    3.7096   -0.6443   -0.4178 C   0  0  0  0  0  0  0  0  0  0  0  0
    4.8573   -1.5881   -1.3721 Cl  0  0  0  0  0  0  0  0  0  0  0  0
    2.4452   -0.3928   -0.8636 C   0  0  0  0  0  0  0  0  0  0  0  0
   -0.9069   -0.1343   -1.1907 C   0  0  1  0  0  0  0  0  0  0  0  0
   -1.2020   -1.4372   -0.5446 C   0  0  0  0  0  0  0  0  0  0  0  0
   -2.5524   -1.6926   -0.3195 C   0  0  0  0  0  0  0  0  0  0  0  0
   -2.9687   -2.8656    0.2823 C   0  0  0  0  0  0  0  0  0  0  0  0
   -1.9838   -3.7628    0.6465 C   0  0  0  0  0  0  0  0  0  0  0  0
   -0.6468   -3.4717    0.4048 C   0  0  0  0  0  0  0  0  0  0  0  0
   -0.2676   -2.3238   -0.1823 N   0  0  0  0  0  0  0  0  0  0  0  0
   -1.7512    0.9355   -0.5134 C   0  0  2  0  0  0  0  0  0  0  0  0
   -3.0349    1.2807   -1.1764 C   0  0  0  0  0  0  0  0  0  0  0  0
   -3.4964    2.6668   -0.7880 C   0  0  0  0  0  0  0  0  0  0  0  0
   -3.6794    2.6864    0.6485 N   0  0  0  0  0  0  0  0  0  0  0  0
   -4.2127    4.2850    1.0656 Cl  0  0  0  0  0  0  0  0  0  0  0  0
  1  2  2  0
  2  3  1  0
  3  4  1  0
  4  5  2  0
  5  6  1  0
  6  7  2  0
  7  8  1  0
  7  9  1  0
  9 10  1  0
  9 11  2  0
  3 12  1  0
 12 13  1  1
 13 14  2  0
 14 15  1  0
 15 16  2  0
 16 17  1  0
 17 18  2  0
 12 19  1  0
 19 20  1  6
 20 21  1  0
 21 22  1  0
 22 23  1  0
 19  2  1  0
 11  4  1  0
 18 13  1  0
M  END
>  <fragInfo>  (1) 
4 5 6 7 8 9 10 11
1 2 3 12 19
13 14 15 16 17 18
20
21
22 23


>  <torsionInfo>  (1) 
3 4 1 0
12 13 1 2
19 20 1 3
20 21 3 4
21 22 4 5


>  <atomInfo>  (1) 
1  -0.2740676OA
2  0.23280862C 
3  -0.3021693N 
4  0.04611626A 
5  -0.0352702A 
6  -0.0226871A 
7  0.14143861A 
8  -0.2053590F 
9  0.07835147A 
10 -0.0810568Cl
11 -0.0165781A 
12 0.09058793C 
13 0.06411119A 
14 -0.0383809A 
15 -0.0588459A 
16 -0.0437944A 
17 0.02716004A 
18 -0.2590632NA
19 0.06631807C 
20 -0.0252318C 
21 0.01162421C 
22 -0.2335084NA
23 -0.0252682Cl


$$$$
