
     RDKit          3D

 21 23  0  0  0  0  0  0  0  0999 V2000
    0.2723   -2.7793    2.7601 O   0  0  0  0  0  0  0  0  0  0  0  0
    0.2187   -2.0955    1.6953 C   0  0  0  0  0  0  0  0  0  0  0  0
   -1.1194   -1.8576    1.2419 N   0  0  0  0  0  0  0  0  0  0  0  0
   -1.7298   -0.7856    0.4939 C   0  0  0  0  0  0  0  0  0  0  0  0
   -3.0642   -0.7974    0.7771 C   0  0  0  0  0  0  0  0  0  0  0  0
   -3.9411    0.1100    0.2178 C   0  0  0  0  0  0  0  0  0  0  0  0
   -5.6373    0.0193    0.6395 Cl  0  0  0  0  0  0  0  0  0  0  0  0
   -3.4669    1.0800   -0.6696 C   0  0  0  0  0  0  0  0  0  0  0  0
   -2.1193    1.0834   -0.9487 C   0  0  0  0  0  0  0  0  0  0  0  0
   -1.6227    2.0039   -1.8003 F   0  0  0  0  0  0  0  0  0  0  0  0
   -1.2507    0.1734   -0.3855 C   0  0  0  0  0  0  0  0  0  0  0  0
    1.4602   -1.7097    1.1745 N   0  0  0  0  0  0  0  0  0  0  0  0
    1.9952   -0.7301    0.2688 C   0  0  0  0  0  0  0  0  0  0  0  0
    3.4810   -0.6925    0.2693 C   0  0  0  0  0  0  0  0  0  0  0  0
    3.8207    0.4441   -0.6348 C   0  0  1  0  0  0  0  0  0  0  0  0
    2.5548    0.9199   -1.2647 C   0  0  0  0  0  0  0  0  0  0  0  0
    1.4823    0.1459   -0.5648 C   0  0  0  0  0  0  0  0  0  0  0  0
    0.0857    0.4619   -0.8946 C   0  0  0  0  0  0  0  0  0  0  0  0
    0.0177    1.2009   -1.9208 O   0  0  0  0  0  0  0  0  0  0  0  0
    4.6505    1.5137   -0.0135 C   0  0  0  0  0  0  0  0  0  0  0  0
    3.9124    2.2913    1.3770 Cl  0  0  0  0  0  0  0  0  0  0  0  0
  1  2  2  0
  2  3  1  0
  3  4  1  0
  4  5  2  0
  5  6  1  0
  6  7  1  0
  6  8  2  0
  8  9  1  0
  9 10  1  0
  9 11  2  0
  2 12  1  0
 12 13  1  0
 13 14  1  0
 14 15  1  0
 15 16  1  0
 16 17  1  0
 17 18  1  0
 18 19  2  0
 15 20  1  1
 20 21  1  0
 11  4  1  0
 18 11  1  0
 13 17  2  0
M  END
>  <fragInfo>  (1) 
1 2 3 4 5 6 7 8 9 10 11 12 13 14 15 16 17 18 19
20 21


>  <torsionInfo>  (1) 
15 20 0 1


>  <atomInfo>  (1) 
1  -0.2481164OA
2  0.32295648C 
3  -0.3068110N 
4  0.05801620A 
5  -0.0187823A 
6  0.04557738A 
7  -0.0841525Cl
8  -0.0066796A 
9  0.13745824A 
10 -0.2060529F 
11 0.08168419A 
12 -0.3110791N 
13 0.02694368C 
14 -0.0077510C 
15 -0.0180471C 
16 -0.0178889C 
17 0.02003232C 
18 0.19531317C 
19 -0.2887060OA
20 0.02582133C 
21 -0.1263891Cl


$$$$
