
     RDKit          3D

 20 21  0  0  0  0  0  0  0  0999 V2000
    1.6039   -2.2218   -2.0398 O   0  0  0  0  0  0  0  0  0  0  0  0
    0.8566   -1.8745   -1.0569 C   0  0  0  0  0  0  0  0  0  0  0  0
   -0.4034   -1.3790   -1.3713 N   0  0  0  0  0  0  0  0  0  0  0  0
   -1.2738   -0.5716   -0.6056 C   0  0  0  0  0  0  0  0  0  0  0  0
   -2.5935   -1.0096   -0.4368 C   0  0  0  0  0  0  0  0  0  0  0  0
   -3.5336   -0.3362    0.2700 C   0  0  0  0  0  0  0  0  0  0  0  0
   -5.1765   -0.9597    0.4334 Cl  0  0  0  0  0  0  0  0  0  0  0  0
   -3.2044    0.8548    0.8718 C   0  0  0  0  0  0  0  0  0  0  0  0
   -1.9077    1.3215    0.7275 C   0  0  0  0  0  0  0  0  0  0  0  0
   -1.5533    2.8407    1.5179 Cl  0  0  0  0  0  0  0  0  0  0  0  0
   -0.9395    0.6210   -0.0046 C   0  0  0  0  0  0  0  0  0  0  0  0
    1.4047   -2.0379    0.2270 N   0  0  0  0  0  0  0  0  0  0  0  0
    1.3121   -1.1061    1.3207 C   0  0  0  0  0  0  0  0  0  0  0  0
    2.7561   -0.7295    1.6791 C   0  0  0  0  0  0  0  0  0  0  0  0
    3.0703    0.5914    1.0612 C   0  0  0  0  0  0  0  0  0  0  0  0
    2.8295    0.5883   -0.6283 S   0  0  1  0  0  0  0  0  0  0  0  0
    1.4121    0.9431   -1.0804 C   0  0  0  0  0  0  0  0  0  0  0  0
    0.3731    1.2471   -0.0621 C   0  0  0  0  0  0  0  0  0  0  0  0
    0.7152    2.1294    0.7980 O   0  0  0  0  0  0  0  0  0  0  0  0
    4.2524    1.0887   -1.6207 F   0  0  0  0  0  0  0  0  0  0  0  0
  1  2  2  0
  2  3  1  0
  3  4  1  0
  4  5  2  0
  5  6  1  0
  6  7  1  0
  6  8  2  0
  8  9  1  0
  9 10  1  0
  9 11  2  0
  2 12  1  0
 12 13  1  0
 13 14  1  0
 14 15  1  0
 15 16  1  0
 16 17  1  0
 17 18  1  0
 18 19  2  0
 16 20  1  6
 11  4  1  0
 18 11  1  0
M  END
>  <fragInfo>  (1) 
1 2 3 4 5 6 7 8 9 10 11 12 13 14 15 16 17 18 19 20


>  <torsionInfo>  (1) 


>  <atomInfo>  (1) 
1  -0.2485080OA
2  0.31875852C 
3  -0.3071686N 
4  0.05620984A 
5  -0.0189024A 
6  0.04414753A 
7  -0.0842072Cl
8  -0.0239017A 
9  0.05498037A 
10 -0.0834121Cl
11 0.06079814A 
12 -0.3378369N 
13 0.01993384C 
14 -0.0259156C 
15 0.00307752C 
16 -0.0963909S 
17 0.06471478C 
18 0.17640307C 
19 -0.2930865OA
20 -0.1919313F 


$$$$
