
     RDKit          3D

 12 12  0  0  0  0  0  0  0  0999 V2000
    3.7911    0.1663   -0.7190 O   0  0  0  0  0  0  0  0  0  0  0  0
    3.0892    0.0636    0.3110 C   0  0  0  0  0  0  0  0  0  0  0  0
    1.7242   -0.3967    0.2353 N   0  0  0  0  0  0  0  0  0  0  0  0
    1.1668   -0.4168    1.5434 C   0  0  0  0  0  0  0  0  0  0  0  0
   -0.1073   -0.3593    1.9363 C   0  0  0  0  0  0  0  0  0  0  0  0
   -1.4212   -0.2571    1.2633 C   0  0  0  0  0  0  0  0  0  0  0  0
   -1.7919    0.0489    0.0297 C   0  0  0  0  0  0  0  0  0  0  0  0
   -3.2611    0.0248   -0.2013 C   0  0  0  0  0  0  0  0  0  0  0  0
   -3.6126    1.3155   -0.6040 F   0  0  0  0  0  0  0  0  0  0  0  0
    1.2720   -0.7120   -1.0842 C   0  0  0  0  0  0  0  0  0  0  0  0
    0.1651    0.1199   -1.5775 C   0  0  0  0  0  0  0  0  0  0  0  0
   -1.0144    0.4029   -1.1330 N   0  0  0  0  0  0  0  0  0  0  0  0
  1  2  2  0
  2  3  1  0
  3  4  1  0
  4  5  2  3
  5  6  1  0
  6  7  2  3
  7  8  1  0
  8  9  1  0
  3 10  1  0
 10 11  1  0
 11 12  2  3
 12  7  1  0
M  END
>  <fragInfo>  (1) 
3 4 5 6 7 10 11 12
1 2
8 9


>  <torsionInfo>  (1) 
2 3 1 0
7 8 0 2


>  <atomInfo>  (1) 
1  -0.2783056OA
2  0.21350802C 
3  -0.3162857N 
4  0.00697798C 
5  -0.0439161C 
6  -0.0364611C 
7  0.07114572C 
8  0.13139401C 
9  -0.2442267F 
10 0.06028358C 
11 0.02457207C 
12 -0.2609801NA


$$$$
