
     RDKit          3D

 11 11  0  0  0  0  0  0  0  0999 V2000
    3.6499    0.8060   -0.3457 O   0  0  0  0  0  0  0  0  0  0  0  0
    2.6574    1.0012    0.3949 C   0  0  0  0  0  0  0  0  0  0  0  0
    1.3295    0.6299    0.0101 N   0  0  0  0  0  0  0  0  0  0  0  0
    0.3267    0.9174    0.9547 C   0  0  0  0  0  0  0  0  0  0  0  0
   -0.9182    0.4238    1.0593 C   0  0  0  0  0  0  0  0  0  0  0  0
   -1.4888   -0.5639    0.1512 C   0  0  0  0  0  0  0  0  0  0  0  0
   -2.8016   -0.7359    0.1649 C   0  0  0  0  0  0  0  0  0  0  0  0
   -3.5196    0.0233    1.0269 F   0  0  0  0  0  0  0  0  0  0  0  0
    1.2358    0.0251   -1.2756 C   0  0  0  0  0  0  0  0  0  0  0  0
    0.3269   -1.1247   -1.3549 C   0  0  0  0  0  0  0  0  0  0  0  0
   -0.7980   -1.4020   -0.7857 N   0  0  0  0  0  0  0  0  0  0  0  0
  1  2  2  0
  2  3  1  0
  3  4  1  0
  4  5  2  0
  5  6  1  0
  6  7  2  3
  7  8  1  0
  3  9  1  0
  9 10  1  0
 10 11  2  0
 11  6  1  0
M  END
>  <fragInfo>  (1) 
3 4 5 6 7 8 9 10 11
1 2


>  <torsionInfo>  (1) 
2 3 1 0


>  <atomInfo>  (1) 
1  -0.2783056OA
2  0.21350920C 
3  -0.3162066N 
4  0.00914456C 
5  -0.0176613C 
6  0.09228501C 
7  0.11233704C 
8  -0.2131721F 
9  0.06029919C 
10 0.02495225C 
11 -0.2568802NA


$$$$
