
     RDKit          3D

 25 28  0  0  0  0  0  0  0  0999 V2000
    1.4880   -0.2142    0.0338 O   0  0  0  0  0  0  0  0  0  0  0  0
    2.1432    0.8598    0.0977 C   0  0  0  0  0  0  0  0  0  0  0  0
    3.5343    0.7823    0.2987 N   0  0  0  0  0  0  0  0  0  0  0  0
    4.3195   -0.3975    0.4298 C   0  0  1  0  0  0  0  0  0  0  0  0
    5.2971   -0.8577   -0.5489 C   0  0  1  0  0  0  0  0  0  0  0  0
    5.8391   -0.0396    0.5447 C   0  0  2  0  0  0  0  0  0  0  0  0
    6.5880   -0.8391    1.5893 C   0  0  0  0  0  0  0  0  0  0  0  0
    7.6539   -1.6717    0.9422 C   0  0  0  0  0  0  0  0  0  0  0  0
    7.2117   -2.3704   -0.1116 C   0  0  0  0  0  0  0  0  0  0  0  0
    5.7941   -2.2837   -0.5440 C   0  0  0  0  0  0  0  0  0  0  0  0
    1.5603    2.1108   -0.0205 N   0  0  0  0  0  0  0  0  0  0  0  0
    0.2634    2.5296   -0.2394 C   0  0  0  0  0  0  0  0  0  0  0  0
   -0.3941    2.0907   -1.5021 C   0  0  0  0  0  0  0  0  0  0  0  0
   -0.6154    0.6064   -1.5250 C   0  0  0  0  0  0  0  0  0  0  0  0
   -1.5837    0.2885   -0.4228 C   0  0  0  0  0  0  0  0  0  0  0  0
   -2.9262    0.3182   -0.6820 N   0  0  0  0  0  0  0  0  0  0  0  0
   -3.5786    0.0061    0.4416 C   0  0  0  0  0  0  0  0  0  0  0  0
   -5.0190   -0.0611    0.6309 C   0  0  0  0  0  0  0  0  0  0  0  0
   -5.5785   -0.4054    1.8458 C   0  0  0  0  0  0  0  0  0  0  0  0
   -6.9342   -0.4579    2.0301 C   0  0  0  0  0  0  0  0  0  0  0  0
   -7.8025   -0.1629    0.9836 C   0  0  0  0  0  0  0  0  0  0  0  0
   -7.2537    0.1855   -0.2481 C   0  0  0  0  0  0  0  0  0  0  0  0
   -5.9013    0.2251   -0.3865 C   0  0  0  0  0  0  0  0  0  0  0  0
   -2.6452   -0.2091    1.3608 N   0  0  0  0  0  0  0  0  0  0  0  0
   -1.4603   -0.0327    0.8127 O   0  0  0  0  0  0  0  0  0  0  0  0
  1  2  2  0
  2  3  1  0
  4  3  1  6
  4  5  1  0
  5  6  1  0
  6  7  1  1
  7  8  1  0
  8  9  2  0
  9 10  1  0
  2 11  1  0
 11 12  1  0
 12 13  1  0
 13 14  1  0
 14 15  1  0
 15 16  2  0
 16 17  1  0
 17 18  1  0
 18 19  2  0
 19 20  1  0
 20 21  2  0
 21 22  1  0
 22 23  2  0
 17 24  2  0
 24 25  1  0
  6  4  1  0
  5 10  1  1
 25 15  1  0
 23 18  1  0
M  END
>  <fragInfo>  (1) 
4 5 6 7 8 9 10
1 2 3 11
12
13
14
15 16 17 24 25
18 19 20 21 22 23


>  <torsionInfo>  (1) 
3 4 1 0
11 12 1 2
12 13 2 3
13 14 3 4
14 15 4 5
17 18 5 6


>  <atomInfo>  (1) 
1  -0.2489001OA
2  0.31452620C 
3  -0.3348298N 
4  0.03747165C 
5  -0.0120927C 
6  -0.0120927C 
7  -0.0298977C 
8  -0.0881615C 
9  -0.0881615C 
10 -0.0298977C 
11 -0.3381441N 
12 0.01961045C 
13 -0.0268123C 
14 0.02864830C 
15 0.22652701A 
16 -0.1912227NA
17 0.20190404A 
18 0.02273286A 
19 -0.0510656A 
20 -0.0615338A 
21 -0.0622215A 
22 -0.0615338A 
23 -0.0510656A 
24 -0.0571443NA
25 -0.3389952OA


$$$$
