
     RDKit          3D

 11 11  0  0  0  0  0  0  0  0999 V2000
    3.7735   -0.7865    0.7335 O   0  0  0  0  0  0  0  0  0  0  0  0
    3.1504   -0.5099   -0.3216 C   0  0  0  0  0  0  0  0  0  0  0  0
    1.7506   -0.3032   -0.3108 N   0  0  0  0  0  0  0  0  0  0  0  0
    1.0450   -0.4119    0.9166 C   0  0  0  0  0  0  0  0  0  0  0  0
   -0.2634   -0.2159    0.9107 C   0  0  0  0  0  0  0  0  0  0  0  0
   -0.9685    0.1038   -0.3217 C   0  0  0  0  0  0  0  0  0  0  0  0
   -2.2862    0.3065   -0.3579 C   0  0  0  0  0  0  0  0  0  0  0  0
   -3.0500    0.1986    0.9145 C   0  0  0  0  0  0  0  0  0  0  0  0
   -4.0199   -0.7845    0.8582 F   0  0  0  0  0  0  0  0  0  0  0  0
    1.0676    0.0086   -1.5163 C   0  0  0  0  0  0  0  0  0  0  0  0
   -0.1991    0.1953   -1.5049 N   0  0  0  0  0  0  0  0  0  0  0  0
  1  2  2  0
  2  3  1  0
  3  4  1  0
  4  5  2  0
  5  6  1  0
  6  7  2  3
  7  8  1  0
  8  9  1  0
  3 10  1  0
 10 11  2  0
 11  6  1  0
M  END
>  <fragInfo>  (1) 
3 4 5 6 7 10 11
1 2
8 9


>  <torsionInfo>  (1) 
2 3 1 0
7 8 0 2


>  <atomInfo>  (1) 
1  -0.2778946OA
2  0.21844387C 
3  -0.2804109N 
4  0.01496368C 
5  -0.0197605C 
6  0.06479836C 
7  -0.0278351C 
8  0.10996053C 
9  -0.2464940F 
10 0.10174351C 
11 -0.2386579NA


$$$$
