
     RDKit          3D

 11 11  0  0  0  0  0  0  0  0999 V2000
    3.5981   -0.6172   -0.2336 O   0  0  0  0  0  0  0  0  0  0  0  0
    2.8339    0.2559   -0.7077 C   0  0  0  0  0  0  0  0  0  0  0  0
    1.4847    0.3384   -0.2824 N   0  0  0  0  0  0  0  0  0  0  0  0
    1.1294   -0.6397    0.6945 C   0  0  0  0  0  0  0  0  0  0  0  0
   -0.1195   -0.9734    1.0379 C   0  0  0  0  0  0  0  0  0  0  0  0
   -1.3704   -0.4082    0.4865 C   0  0  0  0  0  0  0  0  0  0  0  0
   -2.4791   -0.6546    1.1479 C   0  0  0  0  0  0  0  0  0  0  0  0
   -3.6420   -0.1615    0.6848 F   0  0  0  0  0  0  0  0  0  0  0  0
    0.7291    1.3841   -0.9075 C   0  0  0  0  0  0  0  0  0  0  0  0
   -0.6441    1.1079   -1.2452 C   0  0  0  0  0  0  0  0  0  0  0  0
   -1.5202    0.3685   -0.6751 N   0  0  0  0  0  0  0  0  0  0  0  0
  1  2  2  0
  2  3  1  0
  3  4  1  0
  4  5  2  0
  5  6  1  0
  6  7  2  3
  7  8  1  0
  3  9  1  0
  9 10  1  0
 10 11  2  0
 11  6  1  0
M  END
>  <fragInfo>  (1) 
3 4 5 6 7 8 9 10 11
1 2


>  <torsionInfo>  (1) 
2 3 1 0


>  <atomInfo>  (1) 
1  -0.2783056OA
2  0.21350920C 
3  -0.3162066N 
4  0.00914456C 
5  -0.0176613C 
6  0.09228501C 
7  0.11233704C 
8  -0.2131721F 
9  0.06029919C 
10 0.02495225C 
11 -0.2568802NA


$$$$
