
     RDKit          3D

 24 26  0  0  0  0  0  0  0  0999 V2000
   -0.6056   -3.5523   -0.3491 O   0  0  0  0  0  0  0  0  0  0  0  0
   -0.6502   -2.3026   -0.4154 C   0  0  0  0  0  0  0  0  0  0  0  0
   -1.7921   -1.7020   -1.0637 N   0  0  0  0  0  0  0  0  0  0  0  0
   -2.2668   -0.3616   -0.9959 C   0  0  0  0  0  0  0  0  0  0  0  0
   -3.5508   -0.1578   -1.4144 C   0  0  0  0  0  0  0  0  0  0  0  0
   -4.1629    1.0825   -1.4123 C   0  0  0  0  0  0  0  0  0  0  0  0
   -5.8094    1.3244   -1.9524 Cl  0  0  0  0  0  0  0  0  0  0  0  0
   -3.4081    2.1430   -0.9580 C   0  0  0  0  0  0  0  0  0  0  0  0
   -2.0970    1.9676   -0.5249 C   0  0  0  0  0  0  0  0  0  0  0  0
   -1.3899    3.0365   -0.0860 F   0  0  0  0  0  0  0  0  0  0  0  0
   -1.5134    0.7174   -0.5388 C   0  0  0  0  0  0  0  0  0  0  0  0
    0.4545   -1.6367    0.1702 N   0  0  0  0  0  0  0  0  0  0  0  0
    1.1282   -2.4414    1.1976 C   0  0  0  0  0  0  0  0  0  0  0  0
    0.7101   -1.8226    2.5391 C   0  0  0  0  0  0  0  0  0  0  0  0
    0.9485   -0.3430    2.5541 C   0  0  0  0  0  0  0  0  0  0  0  0
    2.0767    0.0447    1.2879 S   0  0  2  0  0  0  0  0  0  0  0  0
    0.9095   -0.3093   -0.1721 C   0  0  2  0  0  0  0  0  0  0  0  0
   -0.1320    0.7285   -0.0486 C   0  0  0  0  0  0  0  0  0  0  0  0
    0.1885    1.7757    0.5575 O   0  0  0  0  0  0  0  0  0  0  0  0
    3.4976   -1.2822    1.1588 Cl  0  0  0  0  0  0  0  0  0  0  0  0
    2.6916    1.7160    1.1185 C   0  0  0  0  0  0  0  0  0  0  0  0
    3.6455    1.7455   -0.0584 C   0  0  0  0  0  0  0  0  0  0  0  0
    4.9860    0.5742    0.3289 S   0  0  0  0  0  0  0  0  0  0  0  0
    6.1414    0.5064   -0.9225 F   0  0  0  0  0  0  0  0  0  0  0  0
  1  2  2  0
  2  3  1  0
  3  4  1  0
  4  5  2  0
  5  6  1  0
  6  7  1  0
  6  8  2  0
  8  9  1  0
  9 10  1  0
  9 11  2  0
  2 12  1  0
 12 13  1  0
 13 14  1  0
 14 15  1  0
 15 16  1  0
 16 17  1  0
 17 18  1  1
 18 19  2  0
 16 20  1  6
 16 21  1  0
 21 22  1  0
 22 23  1  0
 23 24  1  0
 11  4  1  0
 18 11  1  0
 17 12  1  0
M  END
>  <fragInfo>  (1) 
1 2 3 4 5 6 7 8 9 10 11 12 13 14 15 16 17 18 19 20
21
22
23 24


>  <torsionInfo>  (1) 
16 21 0 1
21 22 1 2
22 23 2 3


>  <atomInfo>  (1) 
1  -0.2482197OA
2  0.32264418C 
3  -0.3068972N 
4  0.05776702A 
5  -0.0187935A 
6  0.04557697A 
7  -0.0841525Cl
8  -0.0066910A 
9  0.13721398A 
10 -0.2060646F 
11 0.08013565A 
12 -0.3053507N 
13 0.02461229C 
14 -0.0264953C 
15 -0.0060391C 
16 -0.1337789S 
17 0.13991875C 
18 0.19984965C 
19 -0.2906452OA
20 -0.0636644Cl
21 0.00387938C 
22 0.03378486C 
23 0.04510630SA
24 -0.1651861F 


$$$$
