
     RDKit          3D

 29 33  0  0  0  0  0  0  0  0999 V2000
    2.2509    0.9464    1.4867 O   0  0  0  0  0  0  0  0  0  0  0  0
    1.6417    0.2269    0.6306 C   0  0  0  0  0  0  0  0  0  0  0  0
    2.4532   -0.7832    0.0122 N   0  0  0  0  0  0  0  0  0  0  0  0
    3.8391   -0.9471    0.3511 C   0  0  0  0  0  0  0  0  0  0  0  0
    4.5624    0.3491    0.0313 C   0  0  2  0  0  0  0  0  0  0  0  0
    4.5995    0.9028   -1.3225 C   0  0  0  0  0  0  0  0  0  0  0  0
    5.7868    0.1585   -0.8210 C   0  0  2  0  0  0  0  0  0  0  0  0
    6.0516   -1.1377   -1.4471 C   0  0  0  0  0  0  0  0  0  0  0  0
    7.2262   -1.6827   -1.6057 C   0  0  0  0  0  0  0  0  0  0  0  0
    8.4050   -0.9755   -1.1341 C   0  0  0  0  0  0  0  0  0  0  0  0
    8.2496    0.1955   -0.5603 C   0  0  0  0  0  0  0  0  0  0  0  0
    6.9880    0.8961   -0.3319 C   0  0  0  0  0  0  0  0  0  0  0  0
    0.2831    0.4085    0.3171 N   0  0  0  0  0  0  0  0  0  0  0  0
   -0.4736    1.4359    0.9700 C   0  0  0  0  0  0  0  0  0  0  0  0
   -1.0022    2.3683   -0.1025 C   0  0  0  0  0  0  0  0  0  0  0  0
   -1.6412    1.6513   -1.2445 C   0  0  0  0  0  0  0  0  0  0  0  0
   -3.0221    1.2640   -0.8555 C   0  0  0  0  0  0  0  0  0  0  0  0
   -3.3810    0.2672   -0.0039 N   0  0  0  0  0  0  0  0  0  0  0  0
   -4.7193    0.2310    0.0891 C   0  0  0  0  0  0  0  0  0  0  0  0
   -5.5368   -0.6941    0.9021 C   0  0  0  0  0  0  0  0  0  0  0  0
   -6.8977   -0.6108    0.8961 C   0  0  0  0  0  0  0  0  0  0  0  0
   -7.6364   -1.4861    1.6638 C   0  0  0  0  0  0  0  0  0  0  0  0
   -6.9739   -2.4327    2.4255 C   0  0  0  0  0  0  0  0  0  0  0  0
   -5.5961   -2.4834    2.4034 C   0  0  0  0  0  0  0  0  0  0  0  0
   -4.9227   -1.6205    1.6492 N   0  0  0  0  0  0  0  0  0  0  0  0
   -5.1691    1.2124   -0.7117 N   0  0  0  0  0  0  0  0  0  0  0  0
   -4.1525    1.8100   -1.2598 O   0  0  0  0  0  0  0  0  0  0  0  0
   -0.8538    0.4987   -1.7733 C   0  0  0  0  0  0  0  0  0  0  0  0
   -0.3586   -0.4274   -0.6545 C   0  0  0  0  0  0  0  0  0  0  0  0
  1  2  2  0
  2  3  1  0
  3  4  1  0
  5  4  1  6
  5  6  1  0
  7  6  1  6
  7  8  1  0
  8  9  2  0
  9 10  1  0
 10 11  2  0
 11 12  1  0
  2 13  1  0
 13 14  1  0
 14 15  1  0
 15 16  1  0
 16 17  1  0
 17 18  2  0
 18 19  1  0
 19 20  1  0
 20 21  2  0
 21 22  1  0
 22 23  2  0
 23 24  1  0
 24 25  2  0
 19 26  2  0
 26 27  1  0
 16 28  1  0
 28 29  1  0
  7  5  1  0
 12  7  1  0
 29 13  1  0
 27 17  1  0
 25 20  1  0
M  END
>  <fragInfo>  (1) 
5 6 7 8 9 10 11 12
1 2 3
4
13 14 15 16 28 29
17 18 19 26 27
20 21 22 23 24 25


>  <torsionInfo>  (1) 
4 5 2 0
2 13 1 3
3 4 1 2
16 17 3 4
19 20 4 5


>  <atomInfo>  (1) 
1  -0.2486711OA
2  0.31690441C 
3  -0.3376764N 
4  0.02282991C 
5  -0.0135377C 
6  -0.0380830C 
7  -0.0031636C 
8  -0.0776520C 
9  -0.0660091C 
10 -0.0665394C 
11 -0.0836722C 
12 -0.0252270C 
13 -0.3247836N 
14 0.02298398C 
15 -0.0236190C 
16 0.04178170C 
17 0.22975667A 
18 -0.1895639NA
19 0.22050870A 
20 0.11113078A 
21 -0.0323542A 
22 -0.0584502A 
23 -0.0437662A 
24 0.02762940A 
25 -0.2527805NA
26 -0.0554006NA
27 -0.3386217OA
28 -0.0236190C 
29 0.02298398C 


$$$$
