
     RDKit          3D

 20 22  0  0  0  0  0  0  0  0999 V2000
   -1.1492   -2.4528    2.4768 O   0  0  0  0  0  0  0  0  0  0  0  0
   -0.8406   -1.8109    1.4332 C   0  0  0  0  0  0  0  0  0  0  0  0
    0.5362   -1.4740    1.3982 N   0  0  0  0  0  0  0  0  0  0  0  0
    1.3190   -0.6214    0.5432 C   0  0  0  0  0  0  0  0  0  0  0  0
    2.6238   -0.8014    0.9112 C   0  0  0  0  0  0  0  0  0  0  0  0
    3.6303   -0.1102    0.2654 C   0  0  0  0  0  0  0  0  0  0  0  0
    4.9102   -0.3184    0.6619 F   0  0  0  0  0  0  0  0  0  0  0  0
    3.2815    0.7537   -0.7468 C   0  0  0  0  0  0  0  0  0  0  0  0
    1.9728    0.9494   -1.1330 C   0  0  0  0  0  0  0  0  0  0  0  0
    1.5609    2.0511   -2.4196 Cl  0  0  0  0  0  0  0  0  0  0  0  0
    0.9808    0.2449   -0.4703 C   0  0  0  0  0  0  0  0  0  0  0  0
   -1.9156   -1.5702    0.5390 N   0  0  0  0  0  0  0  0  0  0  0  0
   -2.2093   -0.8742   -0.6878 C   0  0  1  0  0  0  0  0  0  0  0  0
   -3.7246   -0.6169   -0.6749 C   0  0  0  0  0  0  0  0  0  0  0  0
   -3.8789   -0.0743    0.7515 C   0  0  0  0  0  0  0  0  0  0  0  0
   -2.5339    1.6094   -0.0067 S   0  0  2  0  0  0  0  0  0  0  0  0
   -1.6814    0.5036   -0.7674 C   0  0  1  0  0  0  0  0  0  0  0  0
   -0.2709    0.6434   -1.0763 C   0  0  0  0  0  0  0  0  0  0  0  0
   -0.0855    1.2715   -2.1439 O   0  0  0  0  0  0  0  0  0  0  0  0
   -2.5256    2.6977    1.1464 Cl  0  0  0  0  0  0  0  0  0  0  0  0
  1  2  2  0
  2  3  1  0
  3  4  1  0
  4  5  2  0
  5  6  1  0
  6  7  1  0
  6  8  2  0
  8  9  1  0
  9 10  1  0
  9 11  2  0
  2 12  1  0
 12 13  1  0
 13 14  1  1
 14 15  1  0
 15 16  1  0
 16 17  1  0
 17 18  1  1
 18 19  2  0
 16 20  1  1
 11  4  1  0
 18 11  1  0
 17 13  1  0
M  END
>  <fragInfo>  (1) 
1 2 3 4 5 6 7 8 9 10 11 12 13 14 15 16 17 18 19 20


>  <torsionInfo>  (1) 


>  <atomInfo>  (1) 
1  -0.2484979OA
2  0.31902663C 
3  -0.3071077N 
4  0.05765299A 
5  -0.0017197A 
6  0.12631174A 
7  -0.2068721F 
8  -0.0067115A 
9  0.05642117A 
10 -0.0833571Cl
11 0.06124462A 
12 -0.3335467N 
13 0.04991961C 
14 -0.0226708C 
15 -0.0098831C 
16 -0.1625651S 
17 0.08259680C 
18 0.18030696C 
19 -0.2927263OA
20 -0.0683639Cl


$$$$
