
     RDKit          3D

 21 23  0  0  0  0  0  0  0  0999 V2000
    0.5126   -0.5135   -0.6091 O   0  0  0  0  0  0  0  0  0  0  0  0
    0.2414   -0.2458    0.5883 C   0  0  0  0  0  0  0  0  0  0  0  0
    1.3328    0.0343    1.4551 N   0  0  0  0  0  0  0  0  0  0  0  0
    2.6836    0.0114    0.9643 C   0  0  0  0  0  0  0  0  0  0  0  0
    2.8735   -0.2116   -0.3889 C   0  0  0  0  0  0  0  0  0  0  0  0
    4.1095   -0.2623   -0.9700 C   0  0  0  0  0  0  0  0  0  0  0  0
    4.3397   -0.5417   -2.6926 Cl  0  0  0  0  0  0  0  0  0  0  0  0
    5.2035   -0.0814   -0.1542 C   0  0  0  0  0  0  0  0  0  0  0  0
    5.0577    0.1460    1.2107 C   0  0  0  0  0  0  0  0  0  0  0  0
    6.4816    0.3683    2.1792 Cl  0  0  0  0  0  0  0  0  0  0  0  0
    3.7820    0.1849    1.7312 C   0  0  0  0  0  0  0  0  0  0  0  0
   -1.1205   -0.2455    0.9745 N   0  0  0  0  0  0  0  0  0  0  0  0
   -2.1521   -0.5536    0.0079 C   0  0  2  0  0  0  0  0  0  0  0  0
   -2.0388    0.4388   -1.1236 C   0  0  0  0  0  0  0  0  0  0  0  0
   -3.4691    0.4723   -1.6419 C   0  0  0  0  0  0  0  0  0  0  0  0
   -4.4778    0.7954   -2.9717 S   0  0  0  0  0  0  0  0  0  0  0  0
   -6.0858    0.3965   -2.0914 N   0  0  0  0  0  0  0  0  0  0  0  0
   -5.6401    0.1038   -1.0102 C   0  0  0  0  0  0  0  0  0  0  0  0
   -4.3458    0.0957   -0.6386 C   0  0  0  0  0  0  0  0  0  0  0  0
   -3.5096   -0.2010    0.5354 C   0  0  0  0  0  0  0  0  0  0  0  0
   -3.7784   -0.1911    1.7564 O   0  0  0  0  0  0  0  0  0  0  0  0
  1  2  2  0
  2  3  1  0
  3  4  1  0
  4  5  2  0
  5  6  1  0
  6  7  1  0
  6  8  2  0
  8  9  1  0
  9 10  1  0
  9 11  2  0
  2 12  1  0
 13 12  1  1
 13 14  1  0
 14 15  1  0
 15 16  1  0
 16 17  1  0
 17 18  2  0
 18 19  1  0
 19 20  1  0
 20 21  2  0
 11  4  1  0
 20 13  1  0
 15 19  2  0
M  END
>  <fragInfo>  (1) 
13 14 15 16 17 18 19 20 21
1 2 3 12
4 5 6 7 8 9 10 11


>  <torsionInfo>  (1) 
12 13 1 0
3 4 1 2


>  <atomInfo>  (1) 
1  -0.2484867OA
2  0.31934397C 
3  -0.3078960N 
4  0.04533154A 
5  -0.0196517A 
6  0.04409878A 
7  -0.0842080Cl
8  -0.0246496A 
9  0.04409878A 
10 -0.0842080Cl
11 -0.0196517A 
12 -0.3273040N 
13 0.09894564C 
14 0.01197008C 
15 0.03863387A 
16 -0.0407192S 
17 -0.2001287NA
18 0.05185392A 
19 0.05382400A 
20 0.18776835C 
21 -0.2917199OA


$$$$
