
     RDKit          3D

 29 33  0  0  0  0  0  0  0  0999 V2000
   -2.5287   -0.2580   -0.8649 O   0  0  0  0  0  0  0  0  0  0  0  0
   -2.2136   -0.2530    0.3564 C   0  0  0  0  0  0  0  0  0  0  0  0
   -2.9708   -1.1273    1.1970 N   0  0  0  0  0  0  0  0  0  0  0  0
   -4.0170   -1.9732    0.7333 C   0  0  1  0  0  0  0  0  0  0  0  0
   -5.2512   -2.2333    1.5467 C   0  0  0  0  0  0  0  0  0  0  0  0
   -5.2948   -1.5524    0.1772 C   0  0  1  0  0  0  0  0  0  0  0  0
   -5.8669   -0.2182    0.1765 C   0  0  0  0  0  0  0  0  0  0  0  0
   -5.7305    0.7105    1.1959 C   0  0  0  0  0  0  0  0  0  0  0  0
   -6.2989    1.9502    1.1349 C   0  0  0  0  0  0  0  0  0  0  0  0
   -7.0409    2.3060    0.0203 C   0  0  0  0  0  0  0  0  0  0  0  0
   -7.2034    1.4147   -1.0165 C   0  0  0  0  0  0  0  0  0  0  0  0
   -6.6186    0.1802   -0.9215 C   0  0  0  0  0  0  0  0  0  0  0  0
   -1.1688    0.5771    0.8492 N   0  0  0  0  0  0  0  0  0  0  0  0
   -0.5067    1.4011   -0.1788 C   0  0  2  0  0  0  0  0  0  0  0  0
   -0.0608    0.4323   -1.2672 C   0  0  0  0  0  0  0  0  0  0  0  0
    1.3234    0.8141   -1.6379 C   0  0  2  0  0  0  0  0  0  0  0  0
    2.3436   -0.0939   -1.0385 C   0  0  0  0  0  0  0  0  0  0  0  0
    3.6024    0.3772   -0.7494 N   0  0  0  0  0  0  0  0  0  0  0  0
    4.3352   -0.6351   -0.2179 C   0  0  0  0  0  0  0  0  0  0  0  0
    5.7260   -0.5601    0.2240 C   0  0  0  0  0  0  0  0  0  0  0  0
    6.3395    0.6027    0.1347 C   0  0  0  0  0  0  0  0  0  0  0  0
    7.7001    0.7421    0.5470 C   0  0  0  0  0  0  0  0  0  0  0  0
    8.4704   -0.1775    1.0337 C   0  0  0  0  0  0  0  0  0  0  0  0
    8.2216   -1.5794    1.3055 C   0  0  0  0  0  0  0  0  0  0  0  0
    6.5296   -2.0053    0.8618 S   0  0  0  0  0  0  0  0  0  0  0  0
    3.5161   -1.6838   -0.1943 N   0  0  0  0  0  0  0  0  0  0  0  0
    2.3465   -1.3267   -0.6885 O   0  0  0  0  0  0  0  0  0  0  0  0
    1.5185    2.1943   -1.0216 C   0  0  0  0  0  0  0  0  0  0  0  0
    0.7985    1.9746    0.3122 C   0  0  0  0  0  0  0  0  0  0  0  0
  1  2  2  0
  2  3  1  0
  4  3  1  1
  4  5  1  0
  5  6  1  0
  6  7  1  1
  7  8  2  0
  8  9  1  0
  9 10  2  0
 10 11  1  0
 11 12  2  0
  2 13  1  0
 14 13  1  1
 14 15  1  0
 15 16  1  0
 16 17  1  1
 17 18  2  0
 18 19  1  0
 19 20  1  0
 20 21  2  0
 21 22  1  0
 22 23  2  0
 23 24  1  0
 24 25  1  0
 19 26  2  0
 26 27  1  0
 16 28  1  0
 28 29  1  0
  6  4  1  0
 12  7  1  0
 29 14  1  0
 27 17  1  0
 25 20  1  0
M  END
>  <fragInfo>  (1) 
7 8 9 10 11 12
1 2 3 13
4 5 6
14 15 16 28 29
17 18 19 26 27
20 21 22 23 24 25


>  <torsionInfo>  (1) 
6 7 2 0
3 4 1 2
13 14 1 3
16 17 3 4
19 20 4 5


>  <atomInfo>  (1) 
1  -0.2488910OA
2  0.31474364C 
3  -0.3347878N 
4  0.03813214C 
5  -0.0232215C 
6  0.00622061C 
7  -0.0427878A 
8  -0.0586825A 
9  -0.0619824A 
10 -0.0622483A 
11 -0.0619824A 
12 -0.0586825A 
13 -0.3354036N 
14 0.03132282C 
15 -0.0210292C 
16 0.04044441C 
17 0.22966914A 
18 -0.1904832NA
19 0.20831377A 
20 0.05588702C 
21 -0.0449146C 
22 -0.0641820C 
23 -0.0741979C 
24 0.01648114C 
25 -0.1179720SA
26 -0.0565526NA
27 -0.3386626OA
28 -0.0395708C 
29 -0.0319292C 


$$$$
