
     RDKit          3D

 11 11  0  0  0  0  0  0  0  0999 V2000
   -3.5659    0.2468    0.7683 O   0  0  0  0  0  0  0  0  0  0  0  0
   -2.8698    0.4624   -0.2576 C   0  0  0  0  0  0  0  0  0  0  0  0
   -1.5412   -0.1039   -0.2933 N   0  0  0  0  0  0  0  0  0  0  0  0
   -0.7711    0.1534   -1.4651 C   0  0  0  0  0  0  0  0  0  0  0  0
    0.5494    0.2521   -1.5286 C   0  0  0  0  0  0  0  0  0  0  0  0
    1.5430    0.1257   -0.4372 C   0  0  0  0  0  0  0  0  0  0  0  0
    2.7892   -0.0288   -0.7778 C   0  0  0  0  0  0  0  0  0  0  0  0
    3.7390   -0.1493    0.1558 F   0  0  0  0  0  0  0  0  0  0  0  0
   -1.1263   -0.8725    0.8563 C   0  0  0  0  0  0  0  0  0  0  0  0
    0.0700   -0.2534    1.4599 C   0  0  0  0  0  0  0  0  0  0  0  0
    1.1837    0.1674    0.9503 N   0  0  0  0  0  0  0  0  0  0  0  0
  1  2  2  0
  2  3  1  0
  3  4  1  0
  4  5  2  0
  5  6  1  0
  6  7  2  3
  7  8  1  0
  3  9  1  0
  9 10  1  0
 10 11  2  0
 11  6  1  0
M  END
>  <fragInfo>  (1) 
3 4 5 6 7 8 9 10 11
1 2


>  <torsionInfo>  (1) 
2 3 1 0


>  <atomInfo>  (1) 
1  -0.2783056OA
2  0.21350920C 
3  -0.3162066N 
4  0.00914456C 
5  -0.0176613C 
6  0.09228501C 
7  0.11233704C 
8  -0.2131721F 
9  0.06029919C 
10 0.02495225C 
11 -0.2568802NA


$$$$
