
     RDKit          3D

 20 22  0  0  0  0  0  0  0  0999 V2000
    0.5221    3.9849   -0.2185 O   0  0  0  0  0  0  0  0  0  0  0  0
    0.2488    2.7749   -0.1176 C   0  0  0  0  0  0  0  0  0  0  0  0
    1.3813    1.9281    0.0858 N   0  0  0  0  0  0  0  0  0  0  0  0
    1.5789    0.5152    0.1647 C   0  0  0  0  0  0  0  0  0  0  0  0
    2.8696    0.3390    0.6198 C   0  0  0  0  0  0  0  0  0  0  0  0
    3.3752   -0.9420    0.8065 C   0  0  0  0  0  0  0  0  0  0  0  0
    5.0058   -1.1911    1.3817 Cl  0  0  0  0  0  0  0  0  0  0  0  0
    2.5347   -1.9940    0.5183 C   0  0  0  0  0  0  0  0  0  0  0  0
    1.2453   -1.8102    0.0635 C   0  0  0  0  0  0  0  0  0  0  0  0
    0.4193   -2.8653   -0.2197 F   0  0  0  0  0  0  0  0  0  0  0  0
    0.7502   -0.5387   -0.1195 C   0  0  0  0  0  0  0  0  0  0  0  0
   -1.1398    2.4436   -0.2217 N   0  0  0  0  0  0  0  0  0  0  0  0
   -2.0265    1.3605   -0.2069 C   0  0  2  0  0  0  0  0  0  0  0  0
   -2.7054    1.0251    1.0553 C   0  0  0  0  0  0  0  0  0  0  0  0
   -4.0531    0.5062    0.5858 C   0  0  0  0  0  0  0  0  0  0  0  0
   -3.2546   -0.8157   -0.6077 S   0  0  1  0  0  0  0  0  0  0  0  0
   -1.7368    0.1726   -0.9956 C   0  0  2  0  0  0  0  0  0  0  0  0
   -0.6194   -0.6745   -0.6006 C   0  0  0  0  0  0  0  0  0  0  0  0
   -0.9024   -1.8984   -0.6971 O   0  0  0  0  0  0  0  0  0  0  0  0
   -3.4932   -2.3203   -0.3667 Cl  0  0  0  0  0  0  0  0  0  0  0  0
  1  2  2  0
  2  3  1  0
  3  4  1  0
  4  5  2  0
  5  6  1  0
  6  7  1  0
  6  8  2  0
  8  9  1  0
  9 10  1  0
  9 11  2  0
  2 12  1  0
 12 13  1  0
 13 14  1  1
 14 15  1  0
 15 16  1  0
 16 17  1  0
 17 18  1  1
 18 19  2  0
 16 20  1  1
 11  4  1  0
 18 11  1  0
 17 13  1  0
M  END
>  <fragInfo>  (1) 
1 2 3 4 5 6 7 8 9 10 11 12 13 14 15 16 17 18 19 20


>  <torsionInfo>  (1) 


>  <atomInfo>  (1) 
1  -0.2484979OA
2  0.31902665C 
3  -0.3071066N 
4  0.05768312A 
5  -0.0187949A 
6  0.04557695A 
7  -0.0841525Cl
8  -0.0066923A 
9  0.13713783A 
10 -0.2060659F 
11 0.07823349A 
12 -0.3335467N 
13 0.04992061C 
14 -0.0226708C 
15 -0.0098831C 
16 -0.1625642S 
17 0.08265377C 
18 0.18175732C 
19 -0.2926686OA
20 -0.0683639Cl


$$$$
