
     RDKit          3D

 21 23  0  0  0  0  0  0  0  0999 V2000
    0.4541    0.2918   -3.7612 O   0  0  0  0  0  0  0  0  0  0  0  0
    0.2699    0.1549   -2.5253 C   0  0  0  0  0  0  0  0  0  0  0  0
    1.4698    0.4486   -1.8074 N   0  0  0  0  0  0  0  0  0  0  0  0
    1.8929    0.0614   -0.4827 C   0  0  0  0  0  0  0  0  0  0  0  0
    3.2734    0.1325   -0.5021 C   0  0  0  0  0  0  0  0  0  0  0  0
    4.0216   -0.1756    0.6148 C   0  0  0  0  0  0  0  0  0  0  0  0
    5.7796   -0.0863    0.5944 Cl  0  0  0  0  0  0  0  0  0  0  0  0
    3.3292   -0.5559    1.7455 C   0  0  0  0  0  0  0  0  0  0  0  0
    1.9563   -0.6283    1.7703 C   0  0  0  0  0  0  0  0  0  0  0  0
    1.2621   -1.0011    2.8763 F   0  0  0  0  0  0  0  0  0  0  0  0
    1.1947   -0.3185    0.6457 C   0  0  0  0  0  0  0  0  0  0  0  0
   -1.0559   -0.2496   -2.1456 N   0  0  0  0  0  0  0  0  0  0  0  0
   -1.8023   -0.1532   -0.9258 C   0  0  0  0  0  0  0  0  0  0  0  0
   -3.2588    0.1148   -1.0772 C   0  0  0  0  0  0  0  0  0  0  0  0
   -3.6388    0.5213    0.2935 C   0  0  0  0  0  0  0  0  0  0  0  0
   -2.6480   -0.0672    1.2116 C   0  0  0  0  0  0  0  0  0  0  0  0
   -1.4559   -0.2535    0.3341 C   0  0  0  0  0  0  0  0  0  0  0  0
   -0.1938   -0.5012    1.0272 C   0  0  0  0  0  0  0  0  0  0  0  0
   -0.3097   -0.9640    2.1837 O   0  0  0  0  0  0  0  0  0  0  0  0
   -4.6694    1.2678    0.6183 C   0  0  0  0  0  0  0  0  0  0  0  0
   -5.8709    1.9611   -0.6883 Br  0  0  0  0  0  0  0  0  0  0  0  0
  1  2  2  0
  2  3  1  0
  3  4  1  0
  4  5  2  0
  5  6  1  0
  6  7  1  0
  6  8  2  0
  8  9  1  0
  9 10  1  0
  9 11  2  0
  2 12  1  0
 12 13  1  0
 13 14  1  0
 14 15  1  0
 15 16  1  0
 16 17  1  0
 17 18  1  0
 18 19  2  0
 15 20  2  3
 20 21  1  0
 11  4  1  0
 18 11  1  0
 13 17  2  0
M  END
>  <fragInfo>  (1) 
1 2 3 4 5 6 7 8 9 10 11 12 13 14 15 16 17 18 19 20 21


>  <torsionInfo>  (1) 


>  <atomInfo>  (1) 
1  -0.2481162OA
2  0.32296728C 
3  -0.3068108N 
4  0.05801642A 
5  -0.0187823A 
6  0.04557738A 
7  -0.0841525Cl
8  -0.0066796A 
9  0.13745846A 
10 -0.2060529F 
11 0.08169681A 
12 -0.3107473N 
13 0.03101802C 
14 0.01025835C 
15 -0.0528178C 
16 0.00015490C 
17 0.02410617C 
18 0.19564256C 
19 -0.2886931OA
20 -0.0189552C 
21 -0.0595079Br


$$$$
