
     RDKit          3D

 11 11  0  0  0  0  0  0  0  0999 V2000
   -3.1986    1.5851    0.0616 O   0  0  0  0  0  0  0  0  0  0  0  0
   -2.8582    0.3784   -0.1761 C   0  0  0  0  0  0  0  0  0  0  0  0
   -1.5172   -0.0480    0.1436 N   0  0  0  0  0  0  0  0  0  0  0  0
   -0.6307    0.9119    0.7154 C   0  0  0  0  0  0  0  0  0  0  0  0
    0.7113    0.8555    0.5971 C   0  0  0  0  0  0  0  0  0  0  0  0
    1.5356   -0.1247   -0.0920 C   0  0  0  0  0  0  0  0  0  0  0  0
    2.8381   -0.0739    0.0558 C   0  0  0  0  0  0  0  0  0  0  0  0
    3.4954    0.8176    0.7998 F   0  0  0  0  0  0  0  0  0  0  0  0
   -1.2997   -1.4248   -0.1826 C   0  0  0  0  0  0  0  0  0  0  0  0
   -0.1258   -1.7187   -0.9910 C   0  0  0  0  0  0  0  0  0  0  0  0
    1.0497   -1.1583   -0.9316 N   0  0  0  0  0  0  0  0  0  0  0  0
  1  2  2  0
  2  3  1  0
  3  4  1  0
  4  5  2  0
  5  6  1  0
  6  7  2  3
  7  8  1  0
  3  9  1  0
  9 10  1  0
 10 11  2  0
 11  6  1  0
M  END
>  <fragInfo>  (1) 
3 4 5 6 7 8 9 10 11
1 2


>  <torsionInfo>  (1) 
2 3 1 0


>  <atomInfo>  (1) 
1  -0.2783056OA
2  0.21350920C 
3  -0.3162066N 
4  0.00914456C 
5  -0.0176613C 
6  0.09228501C 
7  0.11233704C 
8  -0.2131721F 
9  0.06029919C 
10 0.02495225C 
11 -0.2568802NA


$$$$
