
     RDKit          3D

 29 33  0  0  0  0  0  0  0  0999 V2000
    1.7509   -1.6703    1.1008 O   0  0  0  0  0  1  0  0  0  0  0  0
    1.1226   -0.4961    0.8160 N   0  0  0  0  0  3  0  0  0  0  0  0
    1.7397    0.1274   -0.2551 N   0  0  0  0  0  0  0  0  0  0  0  0
    3.0865   -0.3615   -0.4776 C   0  0  1  0  0  0  0  0  0  0  0  0
    3.8532    0.2750   -1.6504 C   0  0  0  0  0  0  0  0  0  0  0  0
    4.1829    0.5818   -0.2357 C   0  0  2  0  0  0  0  0  0  0  0  0
    5.4904    0.0808    0.2862 C   0  0  0  0  0  0  0  0  0  0  0  0
    5.7453   -0.0767    1.6308 C   0  0  0  0  0  0  0  0  0  0  0  0
    6.9723   -0.5434    2.0477 C   0  0  0  0  0  0  0  0  0  0  0  0
    7.9715   -0.8644    1.1623 C   0  0  0  0  0  0  0  0  0  0  0  0
    7.7124   -0.7053   -0.1847 C   0  0  0  0  0  0  0  0  0  0  0  0
    6.4915   -0.2397   -0.6253 C   0  0  0  0  0  0  0  0  0  0  0  0
   -0.2257   -0.6976    0.4818 N   0  0  0  0  0  0  0  0  0  0  0  0
   -0.5886    0.1652   -0.5864 C   0  0  2  0  0  0  0  0  0  0  0  0
   -0.4684    1.5934   -0.3858 C   0  0  1  0  0  0  0  0  0  0  0  0
   -1.6415    2.4393   -0.1447 C   0  0  1  0  0  0  0  0  0  0  0  0
   -2.6886    1.9548    0.7429 C   0  0  0  0  0  0  0  0  0  0  0  0
   -3.5330    0.9873    0.7485 N   0  0  0  0  0  0  0  0  0  0  0  0
   -3.7543   -0.0589   -0.2251 C   0  0  0  0  0  0  0  0  0  0  0  0
   -5.0917   -0.6222   -0.2143 C   0  0  0  0  0  0  0  0  0  0  0  0
   -6.0906   -0.0679    0.5339 C   0  0  0  0  0  0  0  0  0  0  0  0
   -7.3488   -0.6193    0.5283 C   0  0  0  0  0  0  0  0  0  0  0  0
   -7.5891   -1.7328   -0.2376 C   0  0  0  0  0  0  0  0  0  0  0  0
   -6.5509   -2.2652   -0.9821 C   0  0  0  0  0  0  0  0  0  0  0  0
   -5.3408   -1.7026   -0.9521 N   0  0  0  0  0  0  0  0  0  0  0  0
   -2.9699   -0.6022   -1.1220 N   0  0  0  0  0  0  0  0  0  0  0  0
   -1.6329   -0.3039   -1.3984 O   0  0  0  0  0  0  0  0  0  0  0  0
   -0.7064    3.3539    0.6709 C   0  0  0  0  0  0  0  0  0  0  0  0
    0.1018    2.0713    0.9330 C   0  0  0  0  0  0  0  0  0  0  0  0
  1  2  1  0
  2  3  1  0
  4  3  1  6
  4  5  1  0
  5  6  1  0
  6  7  1  1
  7  8  2  0
  8  9  1  0
  9 10  2  0
 10 11  1  0
 11 12  2  0
  2 13  1  0
 14 13  1  1
 14 15  1  0
 15 16  1  0
 16 17  1  0
 17 18  2  3
 18 19  1  0
 19 20  1  0
 20 21  2  0
 21 22  1  0
 22 23  2  0
 23 24  1  0
 24 25  2  0
 19 26  2  3
 26 27  1  0
 16 28  1  1
 28 29  1  0
  6  4  1  0
 12  7  1  0
 27 14  1  0
 15 29  1  1
 25 20  1  0
M  CHG  2   1  -1   2   1
M  RAD  1   2   2
M  END
>  <fragInfo>  (1) 
14 15 16 17 18 19 26 27 28 29
1 2
3
4 5 6
7 8 9 10 11 12
13
20 21 22 23 24 25


>  <torsionInfo>  (1) 
13 14 5 0
19 20 0 6
2 3 1 2
2 13 1 5
3 4 2 3
6 7 3 4


>  <atomInfo>  (1) 
1  -0.5361735OA
2  -0.0073144N 
3  -0.0909491NA
4  0.07135394C 
5  -0.0230866C 
6  0.00637983C 
7  -0.0430792A 
8  -0.0586981A 
9  -0.0619827A 
10 -0.0622483A 
11 -0.0619827A 
12 -0.0586981A 
13 -0.0508991NA
14 0.23221081C 
15 0.02527054C 
16 0.00233670C 
17 0.01056435C 
18 -0.2365730NA
19 0.21649665C 
20 0.11097784A 
21 -0.0323568A 
22 -0.0584502A 
23 -0.0437662A 
24 0.02762938A 
25 -0.2527832NA
26 -0.0618937NA
27 -0.3688624OA
28 -0.0445089C 
29 -0.0439919C 


$$$$
