
     RDKit          3D

 22 23  0  0  0  0  0  0  0  0999 V2000
    0.2149   -0.7296    0.8627 O   0  0  0  0  0  0  0  0  0  0  0  0
    0.2401    0.1287   -0.0501 C   0  0  0  0  0  0  0  0  0  0  0  0
    1.5077    0.4672   -0.6062 N   0  0  0  0  0  0  0  0  0  0  0  0
    2.6836   -0.1543   -0.1313 C   0  0  0  0  0  0  0  0  0  0  0  0
    3.8902    0.2873   -0.6391 C   0  0  0  0  0  0  0  0  0  0  0  0
    5.0637   -0.2653   -0.2196 C   0  0  0  0  0  0  0  0  0  0  0  0
    6.5880    0.2968   -0.8574 Cl  0  0  0  0  0  0  0  0  0  0  0  0
    5.0745   -1.2770    0.7180 C   0  0  0  0  0  0  0  0  0  0  0  0
    3.8614   -1.7124    1.2194 C   0  0  0  0  0  0  0  0  0  0  0  0
    3.7664   -2.7110    2.1513 F   0  0  0  0  0  0  0  0  0  0  0  0
    2.6534   -1.1580    0.8031 C   0  0  0  0  0  0  0  0  0  0  0  0
   -0.9640    0.7141   -0.4778 N   0  0  0  0  0  0  0  0  0  0  0  0
   -2.2869    0.3928    0.0820 C   0  0  1  0  0  0  0  0  0  0  0  0
   -2.5165    1.2714    1.3204 C   0  0  0  0  0  0  0  0  0  0  0  0
   -2.6691    2.6717    0.7375 C   0  0  1  0  0  0  0  0  0  0  0  0
   -3.0393    2.4804   -0.7108 C   0  0  0  0  0  0  0  0  0  0  0  0
   -3.2695    1.0090   -0.8968 C   0  0  2  0  0  0  0  0  0  0  0  0
   -4.6834    0.5707   -0.7026 C   0  0  0  0  0  0  0  0  0  0  0  0
   -4.7552   -0.9416   -0.8619 C   0  0  0  0  0  0  0  0  0  0  0  0
   -3.6807   -1.6372    0.3950 S   0  0  0  0  0  0  0  0  0  0  0  0
   -4.0155   -3.0877    0.7083 O   0  0  0  0  0  0  0  0  0  0  0  0
   -3.6640    3.3841    1.3689 F   0  0  0  0  0  0  0  0  0  0  0  0
  1  2  2  0
  2  3  1  0
  3  4  1  0
  4  5  2  0
  5  6  1  0
  6  7  1  0
  6  8  2  0
  8  9  1  0
  9 10  1  0
  9 11  2  0
  2 12  1  0
 13 12  1  6
 13 14  1  0
 14 15  1  0
 15 16  1  0
 16 17  1  0
 17 18  1  1
 18 19  1  0
 19 20  1  0
 20 21  2  0
 15 22  1  1
 11  4  1  0
 17 13  1  0
M  END
>  <fragInfo>  (1) 
4 5 6 7 8 9 10 11
1 2 3 12
13 14 15 16 17 22
18
19
20 21


>  <torsionInfo>  (1) 
3 4 1 0
12 13 1 2
17 18 2 3
18 19 3 4
19 20 4 5


>  <atomInfo>  (1) 
1  -0.2484991OA
2  0.31896457C 
3  -0.3078527N 
4  0.04676220A 
5  -0.0195457A 
6  0.04552739A 
7  -0.0841533Cl
8  -0.0074594A 
9  0.12626279A 
10 -0.2068729F 
11 -0.0024690A 
12 -0.3347476N 
13 0.03626806C 
14 -0.0008857C 
15 0.10241908C 
16 -0.0167688C 
17 -0.0172095C 
18 -0.0370045C 
19 0.02094048C 
20 0.00768583S 
21 -0.2628321OA
22 -0.2473978F 


$$$$
