
     RDKit          3D

 21 22  0  0  0  0  0  0  0  0999 V2000
   -4.5420   -0.0399   -0.7435 O   0  0  0  0  0  0  0  0  0  0  0  0
   -3.4115    0.4338   -0.4536 C   0  0  0  0  0  0  0  0  0  0  0  0
   -2.4783   -0.5677   -0.0160 C   0  0  0  0  0  0  0  0  0  0  0  0
   -3.1589   -1.7682   -0.0531 C   0  0  0  0  0  0  0  0  0  0  0  0
   -2.5459   -2.9556    0.3117 C   0  0  0  0  0  0  0  0  0  0  0  0
   -1.2294   -2.9030    0.7152 C   0  0  0  0  0  0  0  0  0  0  0  0
   -0.5693   -1.7057    0.7464 C   0  0  0  0  0  0  0  0  0  0  0  0
   -1.1471   -0.5029    0.3903 C   0  0  0  0  0  0  0  0  0  0  0  0
   -3.3630    1.8877   -0.6454 C   0  0  0  0  0  0  0  0  0  0  0  0
   -2.4911    2.7869   -0.2169 C   0  0  0  0  0  0  0  0  0  0  0  0
   -1.2640    2.8120    0.5766 C   0  0  0  0  0  0  0  0  0  0  0  0
   -0.4131    1.8264    0.8064 C   0  0  0  0  0  0  0  0  0  0  0  0
   -0.0736    0.4549    0.5856 C   0  0  2  0  0  0  0  0  0  0  0  0
    1.1187    0.1842   -0.2630 C   0  0  0  0  0  0  0  0  0  0  0  0
    1.6892   -1.1847    0.0447 C   0  0  2  0  0  0  0  0  0  0  0  0
    2.0559   -1.1893    1.4108 O   0  0  0  0  0  0  0  0  0  0  0  0
    2.9916   -1.2975   -0.7308 C   0  0  0  0  0  0  0  0  0  0  0  0
    3.7822   -0.1528   -0.3647 N   0  0  0  0  0  0  0  0  0  0  0  0
    4.1245    0.7461   -1.2133 C   0  0  0  0  0  0  0  0  0  0  0  0
    4.9483    1.8811   -0.6874 C   0  0  0  0  0  0  0  0  0  0  0  0
    5.9767    1.2543    0.2484 C   0  0  0  0  0  0  0  0  0  0  0  0
  1  2  2  0
  2  3  1  0
  3  4  2  0
  4  5  1  0
  5  6  2  0
  6  7  1  0
  7  8  2  0
  2  9  1  0
  9 10  2  3
 10 11  1  0
 11 12  2  3
 12 13  1  0
 13 14  1  6
 14 15  1  0
 15 16  1  1
 15 17  1  0
 17 18  1  0
 18 19  2  3
 19 20  1  0
 20 21  1  0
  8  3  1  0
 13  8  1  0
M  END
>  <fragInfo>  (1) 
1 2 3 4 5 6 7 8 9 10 11 12 13
14
15 16
17
18 19
20 21


>  <torsionInfo>  (1) 
13 14 0 1
14 15 1 2
15 17 2 3
17 18 3 4
19 20 4 5


>  <atomInfo>  (1) 
1  -0.2892796OA
2  0.18562871C 
3  0.02564618A 
4  -0.0507643A 
5  -0.0615120A 
6  -0.0619251A 
7  -0.0577039A 
8  -0.0298557A 
9  -0.0139932C 
10 -0.0586632C 
11 -0.0655203C 
12 -0.0768834C 
13 0.00536359C 
14 -0.0147288C 
15 0.07435445C 
16 -0.3911666OA
17 0.06453566C 
18 -0.2948432NA
19 -0.0014844C 
20 -0.0207255C 
21 -0.0604003C 


$$$$
