
     RDKit          3D

 19 21  0  0  0  0  0  0  0  0999 V2000
   -2.4625    2.2324    1.6734 O   0  0  0  0  0  0  0  0  0  0  0  0
   -1.8496    1.2493    1.0504 C   0  0  0  0  0  0  0  0  0  0  0  0
   -0.4818    1.1973    1.2830 N   0  0  0  0  0  0  0  0  0  0  0  0
    0.6601    0.8173    0.5624 C   0  0  0  0  0  0  0  0  0  0  0  0
    1.7186    1.7546    0.4226 C   0  0  0  0  0  0  0  0  0  0  0  0
    2.8880    1.5248   -0.1958 C   0  0  0  0  0  0  0  0  0  0  0  0
    4.1453    2.7688   -0.3148 Cl  0  0  0  0  0  0  0  0  0  0  0  0
    3.1397    0.3084   -0.7561 C   0  0  0  0  0  0  0  0  0  0  0  0
    2.1543   -0.6447   -0.6559 C   0  0  0  0  0  0  0  0  0  0  0  0
    2.4907   -1.8514   -1.2191 F   0  0  0  0  0  0  0  0  0  0  0  0
    0.9190   -0.4192   -0.0112 C   0  0  0  0  0  0  0  0  0  0  0  0
   -2.5123    0.3261    0.2213 N   0  0  0  0  0  0  0  0  0  0  0  0
   -2.4952    0.3848   -1.2618 C   0  0  0  0  0  0  0  0  0  0  0  0
   -1.6888   -0.8274   -1.7475 C   0  0  0  0  0  0  0  0  0  0  0  0
   -1.3396   -1.6705   -0.5860 C   0  0  0  0  0  0  0  0  0  0  0  0
   -2.4338   -2.0992    0.3135 C   0  0  0  0  0  0  0  0  0  0  0  0
   -3.2663   -0.8715    0.6736 C   0  0  0  0  0  0  0  0  0  0  0  0
   -0.0064   -1.5514   -0.0199 C   0  0  0  0  0  0  0  0  0  0  0  0
    0.4207   -2.6284    0.5679 O   0  0  0  0  0  0  0  0  0  0  0  0
  1  2  2  0
  2  3  1  0
  3  4  1  0
  4  5  2  0
  5  6  1  0
  6  7  1  0
  6  8  2  0
  8  9  1  0
  9 10  1  0
  9 11  2  0
  2 12  1  0
 12 13  1  0
 13 14  1  0
 14 15  1  0
 15 16  1  0
 16 17  1  0
 15 18  1  0
 18 19  2  0
 11  4  1  0
 18 11  1  0
 17 12  1  0
M  END
>  <fragInfo>  (1) 
1 2 3 4 5 6 7 8 9 10 11 12 13 14 15 16 17 18 19


>  <torsionInfo>  (1) 


>  <atomInfo>  (1) 
1  -0.2482695OA
2  0.32136316C 
3  -0.3069374N 
4  0.05765515A 
5  -0.0187954A 
6  0.04557694A 
7  -0.0841525Cl
8  -0.0066929A 
9  0.13710297A 
10 -0.2060666F 
11 0.07728223A 
12 -0.3244879N 
13 0.02293644C 
14 -0.0251531C 
15 0.02589599C 
16 -0.0251531C 
17 0.02293644C 
18 0.17062713C 
19 -0.2936754OA


$$$$
