
     RDKit          3D

 19 21  0  0  0  0  0  0  0  0999 V2000
   -0.7785    3.3244    1.7601 O   0  0  0  0  0  0  0  0  0  0  0  0
   -0.7317    2.3095    1.0080 C   0  0  0  0  0  0  0  0  0  0  0  0
    0.5780    2.0675    0.4562 N   0  0  0  0  0  0  0  0  0  0  0  0
    1.2177    0.8498    0.0386 C   0  0  0  0  0  0  0  0  0  0  0  0
    2.5650    1.0018    0.2656 C   0  0  0  0  0  0  0  0  0  0  0  0
    3.4644   -0.0196   -0.0403 C   0  0  0  0  0  0  0  0  0  0  0  0
    5.1847    0.1567    0.2424 Cl  0  0  0  0  0  0  0  0  0  0  0  0
    2.9456   -1.1791   -0.5761 C   0  0  0  0  0  0  0  0  0  0  0  0
    1.5773   -1.3255   -0.8034 C   0  0  0  0  0  0  0  0  0  0  0  0
    1.0538   -2.4592   -1.3293 F   0  0  0  0  0  0  0  0  0  0  0  0
    0.6984   -0.3105   -0.4977 C   0  0  0  0  0  0  0  0  0  0  0  0
   -1.9634    1.6176    0.8578 N   0  0  0  0  0  0  0  0  0  0  0  0
   -2.2178    0.1703    0.7689 C   0  0  1  0  0  0  0  0  0  0  0  0
   -3.6207   -0.1805    1.1315 C   0  0  0  0  0  0  0  0  0  0  0  0
   -3.7680   -1.5735    0.5152 C   0  0  0  0  0  0  0  0  0  0  0  0
   -2.9833   -1.5036   -0.7918 C   0  0  0  0  0  0  0  0  0  0  0  0
   -2.0338   -0.3306   -0.6346 C   0  0  2  0  0  0  0  0  0  0  0  0
   -0.6435   -0.7731   -0.8506 C   0  0  0  0  0  0  0  0  0  0  0  0
   -0.5443   -1.8422   -1.5206 O   0  0  0  0  0  0  0  0  0  0  0  0
  1  2  2  0
  2  3  1  0
  3  4  1  0
  4  5  2  0
  5  6  1  0
  6  7  1  0
  6  8  2  0
  8  9  1  0
  9 10  1  0
  9 11  2  0
  2 12  1  0
 12 13  1  0
 13 14  1  6
 14 15  1  0
 15 16  1  0
 17 16  1  1
 17 18  1  0
 18 19  2  0
 11  4  1  0
 18 11  1  0
 17 13  1  0
M  END
>  <fragInfo>  (1) 
1 2 3 4 5 6 7 8 9 10 11 12 13 14 15 16 17 18 19


>  <torsionInfo>  (1) 


>  <atomInfo>  (1) 
1  -0.2484985OA
2  0.31899787C 
3  -0.3071076N 
4  0.05764969A 
5  -0.0187955A 
6  0.04557694A 
7  -0.0841525Cl
8  -0.0066929A 
9  0.13710444A 
10 -0.2060665F 
11 0.07736447A 
12 -0.3343969N 
13 0.04064197C 
14 -0.0319671C 
15 -0.0505504C 
16 -0.0410631C 
17 0.04287555C 
18 0.17254263C 
19 -0.2935907OA


$$$$
