
     RDKit          3D

 23 24  0  0  0  0  0  0  0  0999 V2000
    5.3545    0.2144    1.9648 C   0  0  0  0  0  0  0  0  0  0  0  0
    4.4587    0.9424    1.0233 C   0  0  0  0  0  0  0  0  0  0  0  0
    4.8641    0.8390   -0.4231 C   0  0  0  0  0  0  0  0  0  0  0  0
    3.1073    0.3659    1.1470 N   0  0  0  0  0  0  0  0  0  0  0  0
    2.5082    0.5176   -0.1303 C   0  0  0  0  0  0  0  0  0  0  0  0
    1.1110    0.0672   -0.2787 C   0  0  1  0  0  0  0  0  0  0  0  0
    0.6260    0.3052   -1.7588 C   0  0  0  0  0  0  0  0  0  0  0  0
   -0.0001    1.5859   -1.9814 C   0  0  0  0  0  0  0  0  0  0  0  0
   -1.3108    1.9063   -1.5677 N   0  0  0  0  0  0  0  0  0  0  0  0
   -2.4769    1.1186   -1.5032 C   0  0  0  0  0  0  0  0  0  0  0  0
   -3.5779    1.8295   -1.4685 O   0  0  0  0  0  0  0  0  0  0  0  0
   -2.6200   -0.2542   -1.4757 N   0  0  0  0  0  0  0  0  0  0  0  0
   -2.2443   -1.2414   -0.5768 C   0  0  0  0  0  0  0  0  0  0  0  0
   -2.4682   -1.2528    0.7393 C   0  0  0  0  0  0  0  0  0  0  0  0
   -2.0384   -2.3209    1.6051 C   0  0  0  0  0  0  0  0  0  0  0  0
   -3.2198   -2.9340    2.7865 S   0  0  0  0  0  0  0  0  0  0  0  0
   -0.8130   -2.7756    1.4830 C   0  0  0  0  0  0  0  0  0  0  0  0
    0.1401   -2.2008    0.4661 C   0  0  0  0  0  0  0  0  0  0  0  0
    0.7130   -3.1930   -0.2797 F   0  0  0  0  0  0  0  0  0  0  0  0
    0.4014   -0.9660    0.3793 C   0  0  0  0  0  0  0  0  0  0  0  0
   -1.4361    3.3633   -1.1729 C   0  0  0  0  0  0  0  0  0  0  0  0
   -1.2094    3.5480    0.2928 C   0  0  0  0  0  0  0  0  0  0  0  0
    0.1308    0.5355    0.7296 C   0  0  0  0  0  0  0  0  0  0  0  0
  1  2  1  0
  2  3  1  0
  2  4  1  0
  4  5  1  0
  6  5  1  1
  6  7  1  0
  7  8  1  0
  8  9  1  0
  9 10  1  0
 10 11  2  0
 10 12  1  0
 12 13  1  0
 13 14  2  3
 14 15  1  0
 15 16  1  0
 15 17  2  3
 17 18  1  0
 18 19  1  0
 18 20  2  3
  9 21  1  0
 21 22  1  0
  6 23  1  0
 20  6  1  0
 23 20  1  0
M  END
>  <fragInfo>  (1) 
6 7 8 9 10 11 12 13 14 15 16 17 18 19 20 23
1 2 3
4
5
21 22


>  <torsionInfo>  (1) 
5 6 3 0
9 21 0 4
2 4 1 2
4 5 2 3


>  <atomInfo>  (1) 
1  -0.0500311C 
2  0.00106921C 
3  -0.0500311C 
4  -0.3136436NA
5  0.00525368C 
6  0.01241368C 
7  -0.0242748C 
8  0.02311989C 
9  -0.3247949N 
10 0.32085610C 
11 -0.2482890OA
12 -0.3144766N 
13 0.00662661C 
14 -0.0324853C 
15 0.00834889C 
16 -0.1432640SA
17 -0.0129090C 
18 0.12367069C 
19 -0.2069942F 
20 -0.0256375C 
21 0.01939311C 
22 -0.0473615C 
23 -0.0173635C 


$$$$
