
     RDKit          3D

 25 27  0  0  0  0  0  0  0  0999 V2000
   -4.6617    0.4688    2.0155 O   0  0  0  0  0  0  0  0  0  0  0  0
   -3.5418    0.1828    1.5267 C   0  0  0  0  0  0  0  0  0  0  0  0
   -2.6283    1.2907    1.4939 N   0  0  0  0  0  0  0  0  0  0  0  0
   -1.4940    1.5443    0.6360 C   0  0  0  0  0  0  0  0  0  0  0  0
   -1.5584    2.8641    0.2493 C   0  0  0  0  0  0  0  0  0  0  0  0
   -0.5879    3.3744   -0.5911 C   0  0  0  0  0  0  0  0  0  0  0  0
   -0.6941    5.0444   -1.0622 Cl  0  0  0  0  0  0  0  0  0  0  0  0
    0.4288    2.5553   -1.0294 C   0  0  0  0  0  0  0  0  0  0  0  0
    0.5236    1.2480   -0.6681 C   0  0  0  0  0  0  0  0  0  0  0  0
    1.5064    0.4186   -1.0879 F   0  0  0  0  0  0  0  0  0  0  0  0
   -0.4514    0.7297    0.1791 C   0  0  0  0  0  0  0  0  0  0  0  0
   -3.4113   -1.1871    1.1062 N   0  0  0  0  0  0  0  0  0  0  0  0
   -2.3748   -1.8531    0.3551 C   0  0  0  0  0  0  0  0  0  0  0  0
   -2.8451   -3.1186   -0.2969 C   0  0  0  0  0  0  0  0  0  0  0  0
   -1.8319   -3.4196   -1.3486 C   0  0  0  0  0  0  0  0  0  0  0  0
   -0.5894   -2.7857   -0.8034 C   0  0  0  0  0  0  0  0  0  0  0  0
   -1.0967   -1.6713    0.0706 C   0  0  0  0  0  0  0  0  0  0  0  0
   -0.1185   -0.6612    0.4206 C   0  0  1  0  0  0  0  0  0  0  0  0
    1.2703   -1.0524    0.4312 C   0  0  0  0  0  0  0  0  0  0  0  0
    1.8168   -2.0953   -0.1597 C   0  0  0  0  0  0  0  0  0  0  0  0
    3.2656   -2.3707   -0.0601 C   0  0  0  0  0  0  0  0  0  0  0  0
    4.0115   -1.4314    0.7224 N   0  0  0  0  0  0  0  0  0  0  0  0
    4.2707   -0.0813    0.3912 C   0  0  0  0  0  0  0  0  0  0  0  0
    5.2951    0.2843   -0.3678 C   0  0  0  0  0  0  0  0  0  0  0  0
    5.4963    1.7221   -0.6685 C   0  0  0  0  0  0  0  0  0  0  0  0
  1  2  2  0
  2  3  1  0
  3  4  1  0
  4  5  2  0
  5  6  1  0
  6  7  1  0
  6  8  2  0
  8  9  1  0
  9 10  1  0
  9 11  2  0
  2 12  1  0
 12 13  1  0
 13 14  1  0
 14 15  1  0
 15 16  1  0
 16 17  1  0
 17 18  1  0
 18 19  1  6
 19 20  2  3
 20 21  1  0
 21 22  1  0
 22 23  1  0
 23 24  2  3
 24 25  1  0
 11  4  1  0
 18 11  1  0
 13 17  2  0
M  END
>  <fragInfo>  (1) 
1 2 3 4 5 6 7 8 9 10 11 12 13 14 15 16 17 18
19 20
21
22
23 24 25


>  <torsionInfo>  (1) 
18 19 0 1
20 21 1 2
21 22 2 3
22 23 3 4


>  <atomInfo>  (1) 
1  -0.2481168OA
2  0.32293174C 
3  -0.3072525N 
4  0.05092443A 
5  -0.0192267A 
6  0.04554963A 
7  -0.0841530Cl
8  -0.0071337A 
9  0.13039399A 
10 -0.2065293F 
11 0.02256402A 
12 -0.3115230N 
13 0.01963833C 
14 -0.0121823C 
15 -0.0439509C 
16 -0.0286967C 
17 -0.0392652C 
18 0.02984685C 
19 -0.0749795C 
20 -0.0685972C 
21 0.03250311C 
22 -0.3876838N 
23 -0.0077107C 
24 -0.0719038C 
25 -0.0452629C 


$$$$
