
     RDKit          3D

 24 26  0  0  0  0  0  0  0  0999 V2000
   -0.9430    0.7884   -2.0320 O   0  0  0  0  0  0  0  0  0  0  0  0
   -0.7081    0.7344   -0.8115 C   0  0  0  0  0  0  0  0  0  0  0  0
    0.3461    0.1667   -0.0540 N   0  0  0  0  0  0  0  0  0  0  0  0
    1.7116   -0.0235   -0.2284 C   0  0  0  0  0  0  0  0  0  0  0  0
    2.2863    0.0393   -1.4924 C   0  0  0  0  0  0  0  0  0  0  0  0
    3.6369   -0.1390   -1.7096 C   0  0  0  0  0  0  0  0  0  0  0  0
    4.4447   -0.3899   -0.6220 C   0  0  0  0  0  0  0  0  0  0  0  0
    5.7812   -0.5702   -0.8053 F   0  0  0  0  0  0  0  0  0  0  0  0
    3.9247   -0.4635    0.6631 C   0  0  0  0  0  0  0  0  0  0  0  0
    4.9649   -0.7847    2.0498 Cl  0  0  0  0  0  0  0  0  0  0  0  0
    2.5705   -0.2811    0.8477 C   0  0  0  0  0  0  0  0  0  0  0  0
   -0.6360   -0.1167    0.9705 C   0  0  2  0  0  0  0  0  0  0  0  0
   -1.3838   -1.3448    0.6425 C   0  0  0  0  0  0  0  0  0  0  0  0
   -0.7031   -2.4473    0.1987 C   0  0  0  0  0  0  0  0  0  0  0  0
   -1.3898   -3.6268   -0.1186 C   0  0  0  0  0  0  0  0  0  0  0  0
   -2.7447   -3.5827    0.0475 C   0  0  0  0  0  0  0  0  0  0  0  0
   -3.4022   -2.4749    0.4917 C   0  0  0  0  0  0  0  0  0  0  0  0
   -2.7070   -1.3733    0.7815 N   0  0  0  0  0  0  0  0  0  0  0  0
   -1.2942    1.1689    0.4920 C   0  0  2  0  0  0  0  0  0  0  0  0
   -2.7803    1.2259    0.5644 C   0  0  0  0  0  0  0  0  0  0  0  0
   -3.3518    2.1923   -0.4523 C   0  0  0  0  0  0  0  0  0  0  0  0
   -2.8475    3.5380   -0.2445 N   0  0  0  0  0  0  0  0  0  0  0  0
   -3.2498    4.1444    1.3324 Cl  0  0  0  0  0  0  0  0  0  0  0  0
   -1.5256    3.6201   -0.5113 F   0  0  0  0  0  0  0  0  0  0  0  0
  1  2  2  0
  2  3  1  0
  3  4  1  0
  4  5  2  0
  5  6  1  0
  6  7  2  0
  7  8  1  0
  7  9  1  0
  9 10  1  0
  9 11  2  0
  3 12  1  0
 12 13  1  6
 13 14  2  0
 14 15  1  0
 15 16  2  0
 16 17  1  0
 17 18  2  0
 12 19  1  0
 19 20  1  6
 20 21  1  0
 21 22  1  0
 22 23  1  0
 22 24  1  0
 19  2  1  0
 11  4  1  0
 18 13  1  0
M  END
>  <fragInfo>  (1) 
4 5 6 7 8 9 10 11
1 2 3 12 19
13 14 15 16 17 18
20
21
22 23 24


>  <torsionInfo>  (1) 
3 4 1 0
12 13 1 2
19 20 1 3
20 21 3 4
21 22 4 5


>  <atomInfo>  (1) 
1  -0.2740676OA
2  0.23281057C 
3  -0.3021693N 
4  0.04611626A 
5  -0.0352702A 
6  -0.0226871A 
7  0.14143861A 
8  -0.2053590F 
9  0.07835147A 
10 -0.0810568Cl
11 -0.0165781A 
12 0.09058986C 
13 0.06411120A 
14 -0.0383809A 
15 -0.0588459A 
16 -0.0437944A 
17 0.02716004A 
18 -0.2590632NA
19 0.06642766C 
20 -0.0222576C 
21 0.04690910C 
22 -0.0555888NA
23 0.01101849Cl
24 -0.1175633F 


$$$$
