
     RDKit          3D

 20 21  0  0  0  0  0  0  0  0999 V2000
   -0.0487    2.9843   -2.0458 O   0  0  0  0  0  0  0  0  0  0  0  0
    0.2806    2.4976   -0.9000 C   0  0  0  0  0  0  0  0  0  0  0  0
   -0.6147    1.9799    0.0025 N   0  0  0  0  0  0  0  0  0  0  0  0
   -1.0131    0.7067    0.4147 C   0  0  0  0  0  0  0  0  0  0  0  0
   -1.7273    0.6536    1.6344 C   0  0  0  0  0  0  0  0  0  0  0  0
   -2.2091   -0.4993    2.1827 C   0  0  0  0  0  0  0  0  0  0  0  0
   -2.8929   -0.4535    3.3747 F   0  0  0  0  0  0  0  0  0  0  0  0
   -2.0069   -1.6970    1.5388 C   0  0  0  0  0  0  0  0  0  0  0  0
   -1.3146   -1.6649    0.3522 C   0  0  0  0  0  0  0  0  0  0  0  0
   -1.1528   -2.8797   -0.2556 F   0  0  0  0  0  0  0  0  0  0  0  0
   -0.8107   -0.4896   -0.2269 C   0  0  0  0  0  0  0  0  0  0  0  0
    1.6579    2.5232   -0.6019 N   0  0  0  0  0  0  0  0  0  0  0  0
    2.4845    1.5402   -0.0166 C   0  0  0  0  0  0  0  0  0  0  0  0
    1.8224    0.4548    0.7542 C   0  0  0  0  0  0  0  0  0  0  0  0
    2.2380   -0.8486    0.1116 C   0  0  0  0  0  0  0  0  0  0  0  0
    2.3457   -0.8131   -1.3957 C   0  0  0  0  0  0  0  0  0  0  0  0
    1.1746    0.0130   -1.8660 C   0  0  0  0  0  0  0  0  0  0  0  0
   -0.0905   -0.6588   -1.4919 C   0  0  0  0  0  0  0  0  0  0  0  0
   -0.6030   -1.4527   -2.3321 O   0  0  0  0  0  0  0  0  0  0  0  0
    2.4805   -1.8961    0.7666 N   0  0  0  0  0  2  0  0  0  0  0  0
  1  2  2  0
  2  3  1  0
  3  4  1  0
  4  5  2  0
  5  6  1  0
  6  7  1  0
  6  8  2  0
  8  9  1  0
  9 10  1  0
  9 11  2  0
  2 12  1  0
 12 13  1  0
 13 14  1  0
 14 15  1  0
 15 16  1  0
 16 17  1  0
 17 18  1  0
 18 19  2  0
 15 20  2  0
 11  4  1  0
 18 11  1  0
M  CHG  1  20  -1
M  END
>  <fragInfo>  (1) 
1 2 3 4 5 6 7 8 9 10 11 12 13 14 15 16 17 18 19 20


>  <torsionInfo>  (1) 


>  <atomInfo>  (1) 
1  -0.2485078OA
2  0.31876928C 
3  -0.3070619N 
4  0.05906718A 
5  -0.0016117A 
6  0.12774325A 
7  -0.2068162F 
8  0.01048056A 
9  0.13852197A 
10 -0.2060107F 
11 0.07709940A 
12 -0.3376134N 
13 0.02108433C 
14 -0.0360486C 
15 -0.2020169C 
16 -0.0464073C 
17 0.01297454C 
18 0.16767893C 
19 -0.2939839OA
20 -0.8112003NA


$$$$
