
     RDKit          3D

 29 33  0  0  0  0  0  0  0  0999 V2000
   -1.6100   -1.3389   -1.2023 O   0  0  0  0  0  0  0  0  0  0  0  0
   -2.0348   -1.8583   -0.1706 C   0  0  0  0  0  0  0  0  0  0  0  0
   -3.3839   -1.6126    0.2305 N   0  0  0  0  0  0  0  0  0  0  0  0
   -4.2983   -0.8046   -0.5029 C   0  0  1  0  0  0  0  0  0  0  0  0
   -5.4920   -1.4033   -1.1633 C   0  0  0  0  0  0  0  0  0  0  0  0
   -5.7056   -0.8304    0.1928 C   0  0  2  0  0  0  0  0  0  0  0  0
   -6.2444    0.4976    0.4379 C   0  0  0  0  0  0  0  0  0  0  0  0
   -7.4196    0.8811   -0.2094 C   0  0  0  0  0  0  0  0  0  0  0  0
   -7.9742    2.1380   -0.0012 C   0  0  0  0  0  0  0  0  0  0  0  0
   -7.3510    3.0353    0.8687 C   0  0  0  0  0  0  0  0  0  0  0  0
   -6.1777    2.6665    1.5228 C   0  0  0  0  0  0  0  0  0  0  0  0
   -5.6746    1.4108    1.2787 C   0  0  0  0  0  0  0  0  0  0  0  0
   -1.1911   -2.6960    0.6001 N   0  0  0  0  0  0  0  0  0  0  0  0
    0.1001   -3.0502    0.3495 C   0  0  0  0  0  0  0  0  0  0  0  0
    1.2511   -2.1786    0.2571 C   0  0  2  0  0  0  0  0  0  0  0  0
    1.2992   -1.0706   -0.8019 C   0  0  1  0  0  0  0  0  0  0  0  0
    2.6993   -0.4922   -0.7283 C   0  0  0  0  0  0  0  0  0  0  0  0
    3.2626    0.2229    0.2583 N   0  0  0  0  0  0  0  0  0  0  0  0
    4.5122    0.5424   -0.0557 C   0  0  0  0  0  0  0  0  0  0  0  0
    5.5524    1.2713    0.6484 C   0  0  0  0  0  0  0  0  0  0  0  0
    6.8009    1.4524    0.0775 C   0  0  0  0  0  0  0  0  0  0  0  0
    7.8222    2.1175    0.6990 C   0  0  0  0  0  0  0  0  0  0  0  0
    7.5806    2.6343    1.9690 C   0  0  0  0  0  0  0  0  0  0  0  0
    6.3055    2.4306    2.5122 C   0  0  0  0  0  0  0  0  0  0  0  0
    5.3379    1.7746    1.8693 N   0  0  0  0  0  0  0  0  0  0  0  0
    4.7150   -0.0057   -1.2926 N   0  0  0  0  0  0  0  0  0  0  0  0
    3.6115   -0.5971   -1.6307 O   0  0  0  0  0  0  0  0  0  0  0  0
    1.4147   -2.2643   -1.7981 C   0  0  0  0  0  0  0  0  0  0  0  0
    2.2922   -2.8724   -0.6781 C   0  0  0  0  0  0  0  0  0  0  0  0
  1  2  2  0
  2  3  1  0
  4  3  1  1
  4  5  1  0
  5  6  1  0
  6  7  1  6
  7  8  2  0
  8  9  1  0
  9 10  2  0
 10 11  1  0
 11 12  2  0
  2 13  1  0
 13 14  1  0
 15 14  1  6
 15 16  1  0
 16 17  1  1
 17 18  2  0
 18 19  1  0
 19 20  1  0
 20 21  2  0
 21 22  1  0
 22 23  2  0
 23 24  1  0
 24 25  2  0
 19 26  2  0
 26 27  1  0
 16 28  1  0
 28 29  1  0
  6  4  1  0
 12  7  1  0
 29 15  1  0
 27 17  1  0
 25 20  1  0
M  END
>  <fragInfo>  (1) 
7 8 9 10 11 12
1 2 3 13
4 5 6
14
15 16 28 29
17 18 19 26 27
20 21 22 23 24 25


>  <torsionInfo>  (1) 
6 7 2 0
3 4 1 2
13 14 1 3
14 15 3 4
16 17 4 5
19 20 5 6


>  <atomInfo>  (1) 
1  -0.2488999OA
2  0.31453693C 
3  -0.3347946N 
4  0.03813201C 
5  -0.0232215C 
6  0.00622061C 
7  -0.0427878A 
8  -0.0586825A 
9  -0.0619824A 
10 -0.0622483A 
11 -0.0619824A 
12 -0.0586825A 
13 -0.3378544N 
14 0.02271350C 
15 -0.0121641C 
16 0.04292933C 
17 0.22996878A 
18 -0.1895556NA
19 0.22050884A 
20 0.11113079A 
21 -0.0323542A 
22 -0.0584502A 
23 -0.0437662A 
24 0.02762940A 
25 -0.2527805NA
26 -0.0554004NA
27 -0.3386112OA
28 -0.0409074C 
29 -0.0472263C 


$$$$
