
     RDKit          3D

 24 25  0  0  0  0  0  0  0  0999 V2000
    4.1255    0.7013   -0.5804 C   0  0  0  0  0  0  0  0  0  0  0  0
    5.3271   -0.0101   -0.1116 C   0  0  2  0  0  0  0  0  0  0  0  0
    5.0960   -1.4749    0.1377 C   0  0  0  0  0  0  0  0  0  0  0  0
    5.7022    0.7008    1.1090 N   0  0  0  0  0  0  0  0  0  0  0  0
    4.4279    1.0938    1.6360 C   0  0  0  0  0  0  0  0  0  0  0  0
    3.5563    1.3697    0.4103 C   0  0  0  0  0  0  0  0  0  0  0  0
    2.3767    2.2082    0.4583 C   0  0  0  0  0  0  0  0  0  0  0  0
    1.4918    2.3156   -0.6167 C   0  0  0  0  0  0  0  0  0  0  0  0
    0.6938    1.2195   -1.0352 N   0  0  0  0  0  0  0  0  0  0  0  0
   -0.6300    1.0471   -0.4118 C   0  0  0  0  0  0  0  0  0  0  0  0
   -1.0281    1.8404    0.4615 O   0  0  0  0  0  0  0  0  0  0  0  0
   -1.4087   -0.0201   -0.8298 N   0  0  0  0  0  0  0  0  0  0  0  0
   -2.7179   -0.3027   -0.3054 C   0  0  0  0  0  0  0  0  0  0  0  0
   -3.4368   -1.3843   -0.7698 C   0  0  0  0  0  0  0  0  0  0  0  0
   -4.7013   -1.6934   -0.2926 C   0  0  0  0  0  0  0  0  0  0  0  0
   -5.4610   -2.8797   -0.8185 C   0  0  0  0  0  0  0  0  0  0  0  0
   -5.2819   -0.9016    0.6850 C   0  0  0  0  0  0  0  0  0  0  0  0
   -4.5756    0.1840    1.1599 C   0  0  0  0  0  0  0  0  0  0  0  0
   -5.1686    0.9414    2.1166 F   0  0  0  0  0  0  0  0  0  0  0  0
   -3.3143    0.4717    0.6671 C   0  0  0  0  0  0  0  0  0  0  0  0
    1.0673    0.3276   -2.0896 C   0  0  0  0  0  0  0  0  0  0  0  0
    1.6609   -0.9438   -1.6434 C   0  0  0  0  0  0  0  0  0  0  0  0
    0.7541   -1.7642   -0.7707 C   0  0  0  0  0  0  0  0  0  0  0  0
    1.4446   -3.0461   -0.3624 C   0  0  0  0  0  0  0  0  0  0  0  0
  1  2  1  0
  2  3  1  1
  2  4  1  0
  4  5  1  0
  5  6  1  0
  6  7  1  0
  7  8  1  0
  8  9  1  0
  9 10  1  0
 10 11  2  0
 10 12  1  0
 12 13  1  0
 13 14  2  0
 14 15  1  0
 15 16  1  0
 15 17  2  0
 17 18  1  0
 18 19  1  0
 18 20  2  0
  9 21  1  0
 21 22  1  0
 22 23  1  0
 23 24  1  0
  1  6  2  0
 20 13  1  0
M  END
>  <fragInfo>  (1) 
13 14 15 16 17 18 19 20
1 2 3 4 5 6
7
8
9
10 11 12
21
22
23 24


>  <torsionInfo>  (1) 
12 13 5 0
6 7 1 2
7 8 2 3
8 9 3 4
9 10 4 5
9 21 4 6
21 22 6 7
22 23 7 8


>  <atomInfo>  (1) 
1  -0.0673501C 
2  0.02273146C 
3  -0.0461126C 
4  -0.3070620NA
5  0.01708262C 
6  -0.0570945C 
7  -0.0128194C 
8  0.02600668C 
9  -0.3242152N 
10 0.32135032C 
11 -0.2482697OA
12 -0.3077259N 
13 0.04554962A 
14 -0.0353267A 
15 -0.0461619A 
16 -0.0395925C 
17 -0.0232315A 
18 0.12504322A 
19 -0.2069191F 
20 -0.0025578A 
21 0.02223591C 
22 -0.0356365C 
23 -0.0544860C 
24 -0.0653170C 


$$$$
