
     RDKit          3D

 21 23  0  0  0  0  0  0  0  0999 V2000
   -0.3184   -3.7997   -0.7491 O   0  0  0  0  0  0  0  0  0  0  0  0
   -0.1345   -2.5671   -0.5359 C   0  0  0  0  0  0  0  0  0  0  0  0
   -1.4203   -1.9181   -0.5450 N   0  0  0  0  0  0  0  0  0  0  0  0
   -1.8021   -0.5511   -0.4581 C   0  0  0  0  0  0  0  0  0  0  0  0
   -3.1166   -0.4771   -0.9325 C   0  0  0  0  0  0  0  0  0  0  0  0
   -3.7698    0.7369   -0.9716 C   0  0  0  0  0  0  0  0  0  0  0  0
   -5.4131    0.8608   -1.5594 Cl  0  0  0  0  0  0  0  0  0  0  0  0
   -3.0842    1.8450   -0.5326 C   0  0  0  0  0  0  0  0  0  0  0  0
   -1.7857    1.7748   -0.0635 C   0  0  0  0  0  0  0  0  0  0  0  0
   -1.1556    2.8872    0.3556 F   0  0  0  0  0  0  0  0  0  0  0  0
   -1.1302    0.5796   -0.0205 C   0  0  0  0  0  0  0  0  0  0  0  0
    1.2193   -2.1749   -0.3542 N   0  0  0  0  0  0  0  0  0  0  0  0
    1.8759   -1.0950    0.2971 C   0  0  0  0  0  0  0  0  0  0  0  0
    3.2791   -1.3586    0.6488 C   0  0  0  0  0  0  0  0  0  0  0  0
    3.5209   -0.9658    2.0681 C   0  0  0  0  0  0  0  0  0  0  0  0
    2.7667    0.9885    1.4302 S   0  0  2  0  0  0  0  0  0  0  0  0
    1.4783    0.1072    0.6488 C   0  0  0  0  0  0  0  0  0  0  0  0
    0.2203    0.8252    0.5206 C   0  0  0  0  0  0  0  0  0  0  0  0
    0.2691    1.9986    1.0025 O   0  0  0  0  0  0  0  0  0  0  0  0
    4.0377    1.6643    0.5732 C   0  0  0  0  0  0  0  0  0  0  0  0
    4.4631    0.6392   -0.8222 Cl  0  0  0  0  0  0  0  0  0  0  0  0
  1  2  2  0
  2  3  1  0
  3  4  1  0
  4  5  2  0
  5  6  1  0
  6  7  1  0
  6  8  2  0
  8  9  1  0
  9 10  1  0
  9 11  2  0
  2 12  1  0
 12 13  1  0
 13 14  1  0
 14 15  1  0
 15 16  1  0
 16 17  1  0
 17 18  1  0
 18 19  2  0
 16 20  1  6
 20 21  1  0
 11  4  1  0
 18 11  1  0
 13 17  2  0
M  END
>  <fragInfo>  (1) 
1 2 3 4 5 6 7 8 9 10 11 12 13 14 15 16 17 18 19
20 21


>  <torsionInfo>  (1) 
16 20 0 1


>  <atomInfo>  (1) 
1  -0.2481159OA
2  0.32298375C 
3  -0.3068100N 
4  0.05804839A 
5  -0.0187818A 
6  0.04557739A 
7  -0.0841525Cl
8  -0.0066791A 
9  0.13749039A 
10 -0.2060523F 
11 0.08251671A 
12 -0.3102685N 
13 0.03613137C 
14 -0.0034804C 
15 -0.0146757C 
16 -0.2076337S 
17 0.05651371C 
18 0.20398005C 
19 -0.2878223OA
20 0.05413919C 
21 -0.1163705Cl


$$$$
