
     RDKit          3D

 24 26  0  0  0  0  0  0  0  0999 V2000
   -1.3802   -0.8929    1.4837 O   0  0  0  0  0  0  0  0  0  0  0  0
   -0.9603   -0.5756    0.3576 C   0  0  0  0  0  0  0  0  0  0  0  0
    0.3250   -0.2956   -0.1531 N   0  0  0  0  0  0  0  0  0  0  0  0
    1.6132   -0.7827    0.1731 C   0  0  0  0  0  0  0  0  0  0  0  0
    1.8172   -1.4090    1.3771 C   0  0  0  0  0  0  0  0  0  0  0  0
    3.0514   -1.8968    1.7363 C   0  0  0  0  0  0  0  0  0  0  0  0
    4.1371   -1.7778    0.9021 C   0  0  0  0  0  0  0  0  0  0  0  0
    5.3609   -2.2561    1.2504 F   0  0  0  0  0  0  0  0  0  0  0  0
    3.9095   -1.1424   -0.3085 C   0  0  0  0  0  0  0  0  0  0  0  0
    5.3036   -0.9903   -1.3758 Cl  0  0  0  0  0  0  0  0  0  0  0  0
    2.6847   -0.6501   -0.6824 C   0  0  0  0  0  0  0  0  0  0  0  0
   -0.2964    0.6370   -1.0749 C   0  0  2  0  0  0  0  0  0  0  0  0
   -0.5541    1.9466   -0.4275 C   0  0  0  0  0  0  0  0  0  0  0  0
   -0.1737    3.0897   -1.0930 C   0  0  0  0  0  0  0  0  0  0  0  0
   -0.3847    4.3519   -0.5537 C   0  0  0  0  0  0  0  0  0  0  0  0
   -0.9992    4.3970    0.6901 C   0  0  0  0  0  0  0  0  0  0  0  0
   -1.3735    3.2630    1.3449 C   0  0  0  0  0  0  0  0  0  0  0  0
   -1.1416    2.0655    0.7696 N   0  0  0  0  0  0  0  0  0  0  0  0
   -1.4840   -0.3219   -0.9903 C   0  0  2  0  0  0  0  0  0  0  0  0
   -2.8320    0.3484   -1.0383 C   0  0  0  0  0  0  0  0  0  0  0  0
   -3.9232   -0.4045   -0.3758 C   0  0  0  0  0  0  0  0  0  0  0  0
   -4.1671   -1.7103   -0.9268 N   0  0  0  0  0  0  0  0  0  0  0  0
   -5.4647   -2.5166   -0.0855 Cl  0  0  0  0  0  0  0  0  0  0  0  0
   -3.0680   -2.4767   -0.9993 F   0  0  0  0  0  0  0  0  0  0  0  0
  1  2  2  0
  2  3  1  0
  3  4  1  0
  4  5  2  0
  5  6  1  0
  6  7  2  0
  7  8  1  0
  7  9  1  0
  9 10  1  0
  9 11  2  0
  3 12  1  0
 12 13  1  1
 13 14  2  0
 14 15  1  0
 15 16  2  0
 16 17  1  0
 17 18  2  0
 12 19  1  0
 19 20  1  1
 20 21  1  0
 21 22  1  0
 22 23  1  0
 22 24  1  0
 19  2  1  0
 11  4  1  0
 18 13  1  0
M  END
>  <fragInfo>  (1) 
4 5 6 7 8 9 10 11
1 2 3 12 19
13 14 15 16 17 18
20
21
22 23 24


>  <torsionInfo>  (1) 
3 4 1 0
12 13 1 2
19 20 1 3
20 21 3 4
21 22 4 5


>  <atomInfo>  (1) 
1  -0.2740676OA
2  0.23281057C 
3  -0.3021693N 
4  0.04611626A 
5  -0.0352702A 
6  -0.0226871A 
7  0.14143861A 
8  -0.2053590F 
9  0.07835147A 
10 -0.0810568Cl
11 -0.0165781A 
12 0.09058986C 
13 0.06411120A 
14 -0.0383809A 
15 -0.0588459A 
16 -0.0437944A 
17 0.02716004A 
18 -0.2590632NA
19 0.06642766C 
20 -0.0222576C 
21 0.04690910C 
22 -0.0555888NA
23 0.01101849Cl
24 -0.1175633F 


$$$$
