
     RDKit          3D

 29 33  0  0  0  0  0  0  0  0999 V2000
    3.3849   -0.7797    1.0983 O   0  0  0  0  0  0  0  0  0  0  0  0
    2.5708    0.0892    0.6684 C   0  0  0  0  0  0  0  0  0  0  0  0
    2.9721    1.4434    0.8063 N   0  0  0  0  0  0  0  0  0  0  0  0
    4.1599    1.9423    1.3616 C   0  0  2  0  0  0  0  0  0  0  0  0
    4.9206    2.9314    0.4382 C   0  0  0  0  0  0  0  0  0  0  0  0
    5.5378    1.6798    1.0480 C   0  0  2  0  0  0  0  0  0  0  0  0
    6.1081    0.6975    0.1388 C   0  0  0  0  0  0  0  0  0  0  0  0
    5.5707    0.2270   -1.0282 C   0  0  0  0  0  0  0  0  0  0  0  0
    6.2563   -0.7087   -1.7689 C   0  0  0  0  0  0  0  0  0  0  0  0
    7.4970   -1.2045   -1.3725 C   0  0  0  0  0  0  0  0  0  0  0  0
    8.0381   -0.7354   -0.2041 C   0  0  0  0  0  0  0  0  0  0  0  0
    7.3632    0.1860    0.5262 C   0  0  0  0  0  0  0  0  0  0  0  0
    1.3272   -0.2747    0.0836 N   0  0  0  0  0  0  0  0  0  0  0  0
    0.9945   -1.6712   -0.0437 C   0  0  0  0  0  0  0  0  0  0  0  0
   -0.4726   -1.9008   -0.2218 C   0  0  0  0  0  0  0  0  0  0  0  0
   -1.3786   -0.9330    0.4368 C   0  0  0  0  0  0  0  0  0  0  0  0
   -2.7604   -0.9733   -0.0706 C   0  0  0  0  0  0  0  0  0  0  0  0
   -3.8142   -0.2674    0.3704 N   0  0  0  0  0  0  0  0  0  0  0  0
   -4.9041   -0.6026   -0.3731 C   0  0  0  0  0  0  0  0  0  0  0  0
   -6.2348   -0.0421   -0.2015 C   0  0  0  0  0  0  0  0  0  0  0  0
   -7.2795   -0.4560   -0.9972 C   0  0  0  0  0  0  0  0  0  0  0  0
   -8.5702    0.0561   -0.8778 C   0  0  0  0  0  0  0  0  0  0  0  0
   -8.8277    1.0178    0.0702 C   0  0  0  0  0  0  0  0  0  0  0  0
   -7.7952    1.4463    0.8765 C   0  0  0  0  0  0  0  0  0  0  0  0
   -6.5158    0.9221    0.7418 C   0  0  0  0  0  0  0  0  0  0  0  0
   -4.4536   -1.5139   -1.2479 N   0  0  0  0  0  0  0  0  0  0  0  0
   -3.1834   -1.7186   -1.0516 O   0  0  0  0  0  0  0  0  0  0  0  0
   -0.8516    0.4711    0.5683 C   0  0  0  0  0  0  0  0  0  0  0  0
    0.3407    0.6717   -0.3869 C   0  0  0  0  0  0  0  0  0  0  0  0
  1  2  2  0
  2  3  1  0
  4  3  1  6
  4  5  1  0
  5  6  1  0
  6  7  1  6
  7  8  2  0
  8  9  1  0
  9 10  2  0
 10 11  1  0
 11 12  2  0
  2 13  1  0
 13 14  1  0
 14 15  1  0
 15 16  1  0
 16 17  1  0
 17 18  2  0
 18 19  1  0
 19 20  1  0
 20 21  2  0
 21 22  1  0
 22 23  2  0
 23 24  1  0
 24 25  2  0
 19 26  2  0
 26 27  1  0
 16 28  1  0
 28 29  1  0
  6  4  1  0
 12  7  1  0
 29 13  1  0
 27 17  1  0
 25 20  1  0
M  END
>  <fragInfo>  (1) 
7 8 9 10 11 12
1 2 3
4 5 6
13 14 15 16 28 29
17 18 19 26 27
20 21 22 23 24 25


>  <torsionInfo>  (1) 
6 7 2 0
2 13 1 3
3 4 1 2
16 17 3 4
19 20 4 5


>  <atomInfo>  (1) 
1  -0.2486618OA
2  0.31713168C 
3  -0.3346176N 
4  0.03813915C 
5  -0.0232214C 
6  0.00622073C 
7  -0.0427878A 
8  -0.0586825A 
9  -0.0619824A 
10 -0.0622483A 
11 -0.0619824A 
12 -0.0586825A 
13 -0.3247764N 
14 0.02298412C 
15 -0.0236190C 
16 0.04178086C 
17 0.22970972A 
18 -0.1909701NA
19 0.20191515A 
20 0.02273305A 
21 -0.0510656A 
22 -0.0615338A 
23 -0.0622215A 
24 -0.0615338A 
25 -0.0510656A 
26 -0.0571304NA
27 -0.3386812OA
28 -0.0236190C 
29 0.02298412C 


$$$$
