
     RDKit          3D

 22 24  0  0  0  0  0  0  0  0999 V2000
    0.8245    4.1335    0.0462 O   0  0  0  0  0  0  0  0  0  0  0  0
    0.4982    2.9184    0.0483 C   0  0  0  0  0  0  0  0  0  0  0  0
    1.6545    2.0996    0.2030 N   0  0  0  0  0  0  0  0  0  0  0  0
    1.9266    0.6949    0.1400 C   0  0  0  0  0  0  0  0  0  0  0  0
    3.2960    0.5494    0.3510 C   0  0  0  0  0  0  0  0  0  0  0  0
    3.8586   -0.7117    0.3460 C   0  0  0  0  0  0  0  0  0  0  0  0
    5.5844   -0.9494    0.6078 Cl  0  0  0  0  0  0  0  0  0  0  0  0
    3.0315   -1.7902    0.1295 C   0  0  0  0  0  0  0  0  0  0  0  0
    1.6627   -1.6486   -0.0817 C   0  0  0  0  0  0  0  0  0  0  0  0
    0.8430   -2.7000   -0.2949 F   0  0  0  0  0  0  0  0  0  0  0  0
    1.1104   -0.3939   -0.0755 C   0  0  0  0  0  0  0  0  0  0  0  0
   -0.8987    2.6751   -0.0997 N   0  0  0  0  0  0  0  0  0  0  0  0
   -1.7786    1.5221   -0.0921 C   0  0  0  0  0  0  0  0  0  0  0  0
   -3.1727    1.8814    0.0323 C   0  0  0  0  0  0  0  0  0  0  0  0
   -4.0534    0.8199   -0.5051 C   0  0  0  0  0  0  0  0  0  0  0  0
   -3.0351   -0.6652   -0.1097 S   0  0  2  0  0  0  0  0  0  0  0  0
   -1.4689    0.2765   -0.1830 C   0  0  0  0  0  0  0  0  0  0  0  0
   -0.3090   -0.5959   -0.3212 C   0  0  0  0  0  0  0  0  0  0  0  0
   -0.6058   -1.7516   -0.7364 O   0  0  0  0  0  0  0  0  0  0  0  0
   -3.0530   -1.7342   -1.8560 C   0  0  0  0  0  0  0  0  0  0  0  0
   -3.4988   -1.6229    1.0979 C   0  0  0  0  0  0  0  0  0  0  0  0
   -2.4165   -3.0072    1.3533 Cl  0  0  0  0  0  0  0  0  0  0  0  0
  1  2  2  0
  2  3  1  0
  3  4  1  0
  4  5  2  0
  5  6  1  0
  6  7  1  0
  6  8  2  0
  8  9  1  0
  9 10  1  0
  9 11  2  0
  2 12  1  0
 12 13  1  0
 13 14  1  0
 14 15  1  0
 15 16  1  0
 16 17  1  0
 17 18  1  0
 18 19  2  0
 16 20  1  6
 16 21  1  0
 21 22  1  0
 11  4  1  0
 18 11  1  0
 13 17  2  0
M  END
>  <fragInfo>  (1) 
1 2 3 4 5 6 7 8 9 10 11 12 13 14 15 16 17 18 19 20
21 22


>  <torsionInfo>  (1) 
16 21 0 1


>  <atomInfo>  (1) 
1  -0.2481159OA
2  0.32298388C 
3  -0.3068100N 
4  0.05804854A 
5  -0.0187818A 
6  0.04557739A 
7  -0.0841525Cl
8  -0.0066791A 
9  0.13749054A 
10 -0.2060523F 
11 0.08252545A 
12 -0.3102600N 
13 0.03635917C 
14 -0.0032517C 
15 -0.0123166C 
16 -0.1981254S 
17 0.05888360C 
18 0.20419813C 
19 -0.2878133OA
20 -0.0292651C 
21 0.05630834C 
22 -0.1161375Cl


$$$$
