
     RDKit          3D

 20 22  0  0  0  0  0  0  0  0999 V2000
   -0.7850    3.7569    1.2916 O   0  0  0  0  0  0  0  0  0  0  0  0
   -0.6545    2.6380    0.7089 C   0  0  0  0  0  0  0  0  0  0  0  0
    0.6761    2.1481    0.8428 N   0  0  0  0  0  0  0  0  0  0  0  0
    1.2426    0.8670    0.5042 C   0  0  0  0  0  0  0  0  0  0  0  0
    2.4505    0.7993    1.1840 C   0  0  0  0  0  0  0  0  0  0  0  0
    3.2498   -0.3177    1.0688 C   0  0  0  0  0  0  0  0  0  0  0  0
    4.7946   -0.4394    1.9197 Cl  0  0  0  0  0  0  0  0  0  0  0  0
    2.8131   -1.3503    0.2661 C   0  0  0  0  0  0  0  0  0  0  0  0
    1.6141   -1.2948   -0.4148 C   0  0  0  0  0  0  0  0  0  0  0  0
    1.0482   -2.5945   -1.4354 Cl  0  0  0  0  0  0  0  0  0  0  0  0
    0.8332   -0.1848   -0.2925 C   0  0  0  0  0  0  0  0  0  0  0  0
   -1.8430    2.1647    0.0823 N   0  0  0  0  0  0  0  0  0  0  0  0
   -2.3329    0.8474   -0.1683 C   0  0  2  0  0  0  0  0  0  0  0  0
   -2.2597   -0.0985    0.9840 C   0  0  0  0  0  0  0  0  0  0  0  0
   -3.3151   -1.1093    0.6935 C   0  0  0  0  0  0  0  0  0  0  0  0
   -2.7776   -1.3883   -1.2382 S   0  0  1  0  0  0  0  0  0  0  0  0
   -1.7310    0.1085   -1.2878 C   0  0  2  0  0  0  0  0  0  0  0  0
   -0.3619   -0.3779   -1.1017 C   0  0  0  0  0  0  0  0  0  0  0  0
   -0.1268   -1.3052   -1.9533 O   0  0  0  0  0  0  0  0  0  0  0  0
   -2.5347   -2.8689   -1.6539 Cl  0  0  0  0  0  0  0  0  0  0  0  0
  1  2  2  0
  2  3  1  0
  3  4  1  0
  4  5  2  0
  5  6  1  0
  6  7  1  0
  6  8  2  0
  8  9  1  0
  9 10  1  0
  9 11  2  0
  2 12  1  0
 12 13  1  0
 13 14  1  1
 14 15  1  0
 15 16  1  0
 16 17  1  0
 17 18  1  1
 18 19  2  0
 16 20  1  1
 11  4  1  0
 18 11  1  0
 17 13  1  0
M  END
>  <fragInfo>  (1) 
1 2 3 4 5 6 7 8 9 10 11 12 13 14 15 16 17 18 19 20


>  <torsionInfo>  (1) 


>  <atomInfo>  (1) 
1  -0.2484979OA
2  0.31902583C 
3  -0.3071607N 
4  0.05622246A 
5  -0.0189022A 
6  0.04414754A 
7  -0.0842072Cl
8  -0.0239015A 
9  0.05499285A 
10 -0.0834119Cl
11 0.06113856A 
12 -0.3335467N 
13 0.04991961C 
14 -0.0226708C 
15 -0.0098831C 
16 -0.1625651S 
17 0.08259678C 
18 0.18030516C 
19 -0.2927263OA
20 -0.0683639Cl


$$$$
