
     RDKit          3D

 27 29  0  0  0  0  0  0  0  0999 V2000
   -0.6319    1.2863   -2.6505 O   0  0  0  0  0  0  0  0  0  0  0  0
   -0.1060    0.8265   -1.6086 C   0  0  0  0  0  0  0  0  0  0  0  0
   -0.7582    0.0753   -0.5536 N   0  0  0  0  0  0  0  0  0  0  0  0
   -1.8094   -0.8171   -0.5421 C   0  0  0  0  0  0  0  0  0  0  0  0
   -2.7081   -0.9701   -1.5872 C   0  0  0  0  0  0  0  0  0  0  0  0
   -3.7272   -1.8971   -1.5181 C   0  0  0  0  0  0  0  0  0  0  0  0
   -3.9145   -2.7145   -0.4340 C   0  0  0  0  0  0  0  0  0  0  0  0
   -4.9175   -3.6399   -0.3771 F   0  0  0  0  0  0  0  0  0  0  0  0
   -3.0273   -2.5694    0.6092 C   0  0  0  0  0  0  0  0  0  0  0  0
   -3.2474   -3.6017    1.9959 Cl  0  0  0  0  0  0  0  0  0  0  0  0
   -2.0225   -1.6604    0.5503 C   0  0  0  0  0  0  0  0  0  0  0  0
    0.2002    0.6858    0.3285 C   0  0  2  0  0  0  0  0  0  0  0  0
   -0.2968    1.9326    0.8820 C   0  0  0  0  0  0  0  0  0  0  0  0
    0.3213    3.1599    0.6922 C   0  0  0  0  0  0  0  0  0  0  0  0
   -0.1931    4.2951    1.2775 C   0  0  0  0  0  0  0  0  0  0  0  0
   -1.3398    4.1891    2.0551 C   0  0  0  0  0  0  0  0  0  0  0  0
   -1.9561    2.9761    2.2478 C   0  0  0  0  0  0  0  0  0  0  0  0
   -1.4085    1.9110    1.6572 N   0  0  0  0  0  0  0  0  0  0  0  0
    1.1126    0.6801   -0.8354 C   0  0  2  0  0  0  0  0  0  0  0  0
    2.2338    1.5997   -0.8933 C   0  0  0  0  0  0  0  0  0  0  0  0
    3.2911    1.0593    0.1007 C   0  0  0  0  0  0  0  0  0  0  0  0
    3.7013   -0.2590   -0.2013 N   0  0  0  0  0  0  0  0  0  0  0  0
    4.2732   -0.4268   -1.3455 O   0  0  0  0  0  0  0  0  0  0  0  0
    3.6988    0.3275   -2.3013 N   0  0  0  0  0  0  0  0  0  0  0  0
    3.8866   -1.1311    0.7500 O   0  0  0  0  0  0  0  0  0  0  0  0
    4.6061   -2.2247    0.3083 C   0  0  0  0  0  0  0  0  0  0  0  0
    4.7393   -3.0927    1.3932 F   0  0  0  0  0  0  0  0  0  0  0  0
  1  2  2  0
  2  3  1  0
  3  4  1  0
  4  5  2  0
  5  6  1  0
  6  7  2  0
  7  8  1  0
  7  9  1  0
  9 10  1  0
  9 11  2  0
  3 12  1  0
 12 13  1  6
 13 14  2  0
 14 15  1  0
 15 16  2  0
 16 17  1  0
 17 18  2  0
 12 19  1  0
 19 20  1  1
 20 21  1  0
 21 22  1  0
 22 23  1  0
 23 24  1  0
 22 25  1  0
 25 26  1  0
 26 27  1  0
 19  2  1  0
 11  4  1  0
 18 13  1  0
M  END
>  <fragInfo>  (1) 
4 5 6 7 8 9 10 11
1 2 3 12 19
13 14 15 16 17 18
20
21
22
23 24
25
26 27


>  <torsionInfo>  (1) 
3 4 1 0
12 13 1 2
19 20 1 3
20 21 3 4
21 22 4 5
22 23 5 6
22 25 5 7
25 26 7 8


>  <atomInfo>  (1) 
1  -0.2740676OA
2  0.23281121C 
3  -0.3021693N 
4  0.04611626A 
5  -0.0352702A 
6  -0.0226871A 
7  0.14143861A 
8  -0.2053590F 
9  0.07835147A 
10 -0.0810568Cl
11 -0.0165781A 
12 0.09059050C 
13 0.06411121A 
14 -0.0383809A 
15 -0.0588459A 
16 -0.0437944A 
17 0.02716004A 
18 -0.2590632NA
19 0.06646251C 
20 -0.0214000C 
21 0.05456496C 
22 -0.0440003NA
23 -0.1881747OA
24 -0.1931570NA
25 -0.2386193OA
26 0.21049294C 
27 -0.2178294F 


$$$$
