
     RDKit          3D

 29 33  0  0  0  0  0  0  0  0999 V2000
   -3.2359   -0.3712    1.1402 O   0  0  0  0  0  0  0  0  0  0  0  0
   -2.8329   -1.3051    0.4323 C   0  0  0  0  0  0  0  0  0  0  0  0
   -3.7000   -2.3966    0.1652 N   0  0  0  0  0  0  0  0  0  0  0  0
   -5.0354   -2.5212    0.6533 C   0  0  2  0  0  0  0  0  0  0  0  0
   -6.0519   -2.7032   -0.5220 C   0  0  0  0  0  0  0  0  0  0  0  0
   -6.1192   -1.5741    0.4022 C   0  0  2  0  0  0  0  0  0  0  0  0
   -5.9366   -0.1739    0.0215 C   0  0  0  0  0  0  0  0  0  0  0  0
   -6.2809    0.8012    0.9599 C   0  0  0  0  0  0  0  0  0  0  0  0
   -6.1546    2.1430    0.7217 C   0  0  0  0  0  0  0  0  0  0  0  0
   -5.6679    2.5794   -0.4913 C   0  0  0  0  0  0  0  0  0  0  0  0
   -5.3211    1.6278   -1.4352 C   0  0  0  0  0  0  0  0  0  0  0  0
   -5.4509    0.2723   -1.1888 C   0  0  0  0  0  0  0  0  0  0  0  0
   -1.5223   -1.2796   -0.1028 N   0  0  0  0  0  0  0  0  0  0  0  0
   -0.5938   -0.1923    0.1360 C   0  0  2  0  0  0  0  0  0  0  0  0
    0.5392   -0.3170   -0.8327 C   0  0  0  0  0  0  0  0  0  0  0  0
    1.4716   -1.3150   -0.1796 C   0  0  1  0  0  0  0  0  0  0  0  0
    2.8521   -0.8957   -0.4862 C   0  0  0  0  0  0  0  0  0  0  0  0
    3.5704   -0.0171    0.2315 N   0  0  0  0  0  0  0  0  0  0  0  0
    4.7742    0.1137   -0.3491 C   0  0  0  0  0  0  0  0  0  0  0  0
    5.8353    1.0043    0.1663 C   0  0  0  0  0  0  0  0  0  0  0  0
    5.6408    1.7629    1.2966 C   0  0  0  0  0  0  0  0  0  0  0  0
    6.6193    2.5958    1.7871 C   0  0  0  0  0  0  0  0  0  0  0  0
    7.8344    2.6553    1.1018 C   0  0  0  0  0  0  0  0  0  0  0  0
    8.0788    1.9159   -0.0348 C   0  0  0  0  0  0  0  0  0  0  0  0
    7.0513    1.1019   -0.4696 C   0  0  0  0  0  0  0  0  0  0  0  0
    4.7729   -0.6837   -1.4074 N   0  0  0  0  0  0  0  0  0  0  0  0
    3.6165   -1.2779   -1.4722 O   0  0  0  0  0  0  0  0  0  0  0  0
    1.2305   -1.2133    1.3086 C   0  0  0  0  0  0  0  0  0  0  0  0
    0.0161   -0.3366    1.4897 C   0  0  0  0  0  0  0  0  0  0  0  0
  1  2  2  0
  2  3  1  0
  4  3  1  6
  4  5  1  0
  5  6  1  0
  6  7  1  6
  7  8  2  0
  8  9  1  0
  9 10  2  0
 10 11  1  0
 11 12  2  0
  2 13  1  0
 14 13  1  6
 14 15  1  0
 15 16  1  0
 16 17  1  1
 17 18  2  0
 18 19  1  0
 19 20  1  0
 20 21  2  0
 21 22  1  0
 22 23  2  0
 23 24  1  0
 24 25  2  0
 19 26  2  0
 26 27  1  0
 16 28  1  0
 28 29  1  0
  6  4  1  0
 12  7  1  0
 29 14  1  0
 27 17  1  0
 25 20  1  0
M  END
>  <fragInfo>  (1) 
7 8 9 10 11 12
1 2 3 13
4 5 6
14 15 16 28 29
17 18 19 26 27
20 21 22 23 24 25


>  <torsionInfo>  (1) 
6 7 2 0
3 4 1 2
13 14 1 3
16 17 3 4
19 20 4 5


>  <atomInfo>  (1) 
1  -0.2488910OA
2  0.31474364C 
3  -0.3347878N 
4  0.03813214C 
5  -0.0232215C 
6  0.00622061C 
7  -0.0427878A 
8  -0.0586825A 
9  -0.0619824A 
10 -0.0622483A 
11 -0.0619824A 
12 -0.0586825A 
13 -0.3354036N 
14 0.03132282C 
15 -0.0210292C 
16 0.04044414C 
17 0.22965339A 
18 -0.1909710NA
19 0.20191514A 
20 0.02273305A 
21 -0.0510656A 
22 -0.0615338A 
23 -0.0622215A 
24 -0.0615338A 
25 -0.0510656A 
26 -0.0571305NA
27 -0.3386822OA
28 -0.0395708C 
29 -0.0319292C 


$$$$
