
     RDKit          3D

 22 24  0  0  0  0  0  0  0  0999 V2000
   -0.7467   -1.1295    0.2340 O   0  0  0  0  0  0  0  0  0  0  0  0
   -0.4797    0.1053    0.0882 C   0  0  0  0  0  0  0  0  0  0  0  0
   -1.5849    0.9757   -0.0790 N   0  0  0  0  0  0  0  0  0  0  0  0
   -2.9167    0.4983   -0.0684 C   0  0  0  0  0  0  0  0  0  0  0  0
   -3.9443    1.4217   -0.2120 C   0  0  0  0  0  0  0  0  0  0  0  0
   -5.2473    1.0306   -0.2010 C   0  0  0  0  0  0  0  0  0  0  0  0
   -6.6022    2.1425   -0.3772 Cl  0  0  0  0  0  0  0  0  0  0  0  0
   -5.5533   -0.2953   -0.0475 C   0  0  0  0  0  0  0  0  0  0  0  0
   -4.5542   -1.2313    0.0951 C   0  0  0  0  0  0  0  0  0  0  0  0
   -4.8752   -2.5365    0.2447 F   0  0  0  0  0  0  0  0  0  0  0  0
   -3.2488   -0.8273    0.0824 C   0  0  0  0  0  0  0  0  0  0  0  0
    0.8653    0.5119    0.0993 N   0  0  0  0  0  0  0  0  0  0  0  0
    1.9975   -0.3796    0.2647 C   0  0  1  0  0  0  0  0  0  0  0  0
    2.2637   -1.2349   -0.9235 C   0  0  0  0  0  0  0  0  0  0  0  0
    3.7579   -1.2538   -1.1512 C   0  0  1  0  0  0  0  0  0  0  0  0
    4.0078   -0.6175   -2.4781 C   0  0  0  0  0  0  0  0  0  0  0  0
    5.5675    0.2625   -2.1846 S   0  0  0  0  0  0  0  0  0  0  0  0
    5.6057    0.1450   -0.3595 C   0  0  0  0  0  0  0  0  0  0  0  0
    4.3043   -0.4706   -0.0403 C   0  0  1  0  0  0  0  0  0  0  0  0
    3.2489    0.4789    0.4727 C   0  0  2  0  0  0  0  0  0  0  0  0
    3.3555    0.7120    1.9704 C   0  0  0  0  0  0  0  0  0  0  0  0
    4.7793    1.6916    2.3863 Cl  0  0  0  0  0  0  0  0  0  0  0  0
  1  2  2  0
  2  3  1  0
  3  4  1  0
  4  5  2  0
  5  6  1  0
  6  7  1  0
  6  8  2  0
  8  9  1  0
  9 10  1  0
  9 11  2  0
  2 12  1  0
 13 12  1  6
 13 14  1  0
 15 14  1  1
 15 16  1  0
 16 17  1  0
 17 18  1  0
 19 18  1  6
 19 20  1  0
 20 21  1  1
 21 22  1  0
 11  4  1  0
 20 13  1  0
 19 15  1  0
M  END
>  <fragInfo>  (1) 
4 5 6 7 8 9 10 11
1 2 3 12
13 14 15 16 17 18 19 20
21 22


>  <torsionInfo>  (1) 
3 4 1 0
12 13 1 2
20 21 2 3


>  <atomInfo>  (1) 
1  -0.2484991OA
2  0.31896388C 
3  -0.3078527N 
4  0.04676220A 
5  -0.0195457A 
6  0.04552739A 
7  -0.0841533Cl
8  -0.0074594A 
9  0.12626279A 
10 -0.2068729F 
11 -0.0024690A 
12 -0.3347924N 
13 0.03511655C 
14 -0.0284435C 
15 -0.0263434C 
16 -0.0035192C 
17 -0.1613924SA
18 -0.0032227C 
19 -0.0226730C 
20 -0.0034111C 
21 0.02739060C 
22 -0.1263201Cl


$$$$
