
     RDKit          3D

 20 22  0  0  0  0  0  0  0  0999 V2000
   -0.2083    3.6924   -1.1960 O   0  0  0  0  0  0  0  0  0  0  0  0
   -0.0034    2.5460   -0.7334 C   0  0  0  0  0  0  0  0  0  0  0  0
   -1.2174    1.8887   -0.4068 N   0  0  0  0  0  0  0  0  0  0  0  0
   -1.6313    0.5691   -0.0481 C   0  0  0  0  0  0  0  0  0  0  0  0
   -2.9977    0.6044    0.1433 C   0  0  0  0  0  0  0  0  0  0  0  0
   -3.7033   -0.5247    0.5015 C   0  0  0  0  0  0  0  0  0  0  0  0
   -5.4401   -0.4855    0.7460 Cl  0  0  0  0  0  0  0  0  0  0  0  0
   -2.9711   -1.6845    0.6568 C   0  0  0  0  0  0  0  0  0  0  0  0
   -1.6054   -1.7197    0.4655 C   0  0  0  0  0  0  0  0  0  0  0  0
   -0.8815   -2.8640    0.6185 F   0  0  0  0  0  0  0  0  0  0  0  0
   -0.8990   -0.5906    0.1072 C   0  0  0  0  0  0  0  0  0  0  0  0
    1.3556    2.1436   -0.6303 N   0  0  0  0  0  0  0  0  0  0  0  0
    2.1062    0.9803   -0.3081 C   0  0  0  0  0  0  0  0  0  0  0  0
    3.5701    1.1980   -0.2328 C   0  0  0  0  0  0  0  0  0  0  0  0
    4.2037    0.2257   -1.1989 C   0  0  0  0  0  0  0  0  0  0  0  0
    3.1924   -1.2386    0.2772 S   0  0  2  0  0  0  0  0  0  0  0  0
    1.7924   -0.2759   -0.0560 C   0  0  0  0  0  0  0  0  0  0  0  0
    0.5050   -0.9848   -0.0086 C   0  0  0  0  0  0  0  0  0  0  0  0
    0.6352   -2.2288   -0.0856 O   0  0  0  0  0  0  0  0  0  0  0  0
    4.1981   -1.2512    1.3887 F   0  0  0  0  0  0  0  0  0  0  0  0
  1  2  2  0
  2  3  1  0
  3  4  1  0
  4  5  2  0
  5  6  1  0
  6  7  1  0
  6  8  2  0
  8  9  1  0
  9 10  1  0
  9 11  2  0
  2 12  1  0
 12 13  1  0
 13 14  1  0
 14 15  1  0
 15 16  1  0
 16 17  1  0
 17 18  1  0
 18 19  2  0
 16 20  1  1
 11  4  1  0
 18 11  1  0
 13 17  2  0
M  END
>  <fragInfo>  (1) 
1 2 3 4 5 6 7 8 9 10 11 12 13 14 15 16 17 18 19 20


>  <torsionInfo>  (1) 


>  <atomInfo>  (1) 
1  -0.2481159OA
2  0.32298503C 
3  -0.3068100N 
4  0.05804991A 
5  -0.0187818A 
6  0.04557739A 
7  -0.0841525Cl
8  -0.0066790A 
9  0.13749191A 
10 -0.2060523F 
11 0.08260493A 
12 -0.3101831N 
13 0.03846862C 
14 -0.0011618C 
15 0.01088755C 
16 -0.0704741S 
17 0.08232583C 
18 0.20622067C 
19 -0.2877317OA
20 -0.1874440F 


$$$$
