
     RDKit          3D

 20 22  0  0  0  0  0  0  0  0999 V2000
   -0.0284   -3.8477   -0.5783 O   0  0  0  0  0  0  0  0  0  0  0  0
    0.0807   -2.6442   -0.1880 C   0  0  0  0  0  0  0  0  0  0  0  0
   -1.1801   -1.9735   -0.2003 N   0  0  0  0  0  0  0  0  0  0  0  0
   -1.6018   -0.6141   -0.1964 C   0  0  0  0  0  0  0  0  0  0  0  0
   -2.9684   -0.6053   -0.3893 C   0  0  0  0  0  0  0  0  0  0  0  0
   -3.6986    0.5697   -0.4376 C   0  0  0  0  0  0  0  0  0  0  0  0
   -5.4478    0.5551   -0.6857 Cl  0  0  0  0  0  0  0  0  0  0  0  0
   -3.0095    1.7554   -0.2847 C   0  0  0  0  0  0  0  0  0  0  0  0
   -1.6343    1.7513   -0.0904 C   0  0  0  0  0  0  0  0  0  0  0  0
   -0.9408    2.9049    0.0616 F   0  0  0  0  0  0  0  0  0  0  0  0
   -0.9150    0.5725   -0.0438 C   0  0  0  0  0  0  0  0  0  0  0  0
    1.3966   -2.2503    0.1622 N   0  0  0  0  0  0  0  0  0  0  0  0
    2.1258   -1.0123    0.2014 C   0  0  0  0  0  0  0  0  0  0  0  0
    3.5949   -1.1892    0.2479 C   0  0  0  0  0  0  0  0  0  0  0  0
    4.0613   -0.5120    1.5197 C   0  0  0  0  0  0  0  0  0  0  0  0
    3.1548    1.3083    0.2636 S   0  0  2  0  0  0  0  0  0  0  0  0
    1.7837    0.2522    0.2054 C   0  0  0  0  0  0  0  0  0  0  0  0
    0.4847    0.9219    0.1706 C   0  0  0  0  0  0  0  0  0  0  0  0
    0.5871    2.1577    0.3860 O   0  0  0  0  0  0  0  0  0  0  0  0
    4.1551    1.8996   -0.1237 F   0  0  0  0  0  0  0  0  0  0  0  0
  1  2  2  0
  2  3  1  0
  3  4  1  0
  4  5  2  0
  5  6  1  0
  6  7  1  0
  6  8  2  0
  8  9  1  0
  9 10  1  0
  9 11  2  0
  2 12  1  0
 12 13  1  0
 13 14  1  0
 14 15  1  0
 15 16  1  0
 16 17  1  0
 17 18  1  0
 18 19  2  0
 16 20  1  0
 11  4  1  0
 18 11  1  0
 13 17  2  0
M  END
>  <fragInfo>  (1) 
1 2 3 4 5 6 7 8 9 10 11 12 13 14 15 16 17 18 19 20


>  <torsionInfo>  (1) 


>  <atomInfo>  (1) 
1  -0.2481159OA
2  0.32298503C 
3  -0.3068100N 
4  0.05804991A 
5  -0.0187818A 
6  0.04557739A 
7  -0.0841525Cl
8  -0.0066790A 
9  0.13749191A 
10 -0.2060523F 
11 0.08260493A 
12 -0.3101831N 
13 0.03846862C 
14 -0.0011618C 
15 0.01088755C 
16 -0.0704741S 
17 0.08232583C 
18 0.20622067C 
19 -0.2877317OA
20 -0.1874440F 


$$$$
