
     RDKit          3D

 27 30  0  0  0  0  0  0  0  0999 V2000
   -1.5391   -1.2035   -1.1757 O   0  0  0  0  0  0  0  0  0  0  0  0
   -1.0548   -1.3593   -0.0037 C   0  0  0  0  0  0  0  0  0  0  0  0
   -2.0263   -1.6818    0.9842 N   0  0  0  0  0  0  0  0  0  0  0  0
   -3.4341   -1.8222    0.7048 C   0  0  2  0  0  0  0  0  0  0  0  0
   -3.9838   -2.5260   -0.4471 C   0  0  0  0  0  0  0  0  0  0  0  0
   -3.8110   -1.0772   -0.6113 C   0  0  1  0  0  0  0  0  0  0  0  0
   -4.8746   -0.0895   -0.4268 C   0  0  0  0  0  0  0  0  0  0  0  0
   -4.4727    1.2175   -0.1617 C   0  0  0  0  0  0  0  0  0  0  0  0
   -5.3823    2.2295    0.0288 C   0  0  0  0  0  0  0  0  0  0  0  0
   -6.7363    1.9551   -0.0421 C   0  0  0  0  0  0  0  0  0  0  0  0
   -7.1055    0.6491   -0.3070 C   0  0  0  0  0  0  0  0  0  0  0  0
   -6.2150   -0.3660   -0.4983 C   0  0  0  0  0  0  0  0  0  0  0  0
    0.3173   -1.2227    0.2866 N   0  0  0  0  0  0  0  0  0  0  0  0
    0.7492   -1.4324    1.6679 C   0  0  0  0  0  0  0  0  0  0  0  0
    2.2476   -1.6779    1.7339 C   0  0  0  0  0  0  0  0  0  0  0  0
    2.7089   -2.6395    0.6890 C   0  0  0  0  0  0  0  0  0  0  0  0
    3.8956   -2.2501   -0.0604 C   0  0  0  0  0  0  0  0  0  0  0  0
    4.1951   -1.0915   -0.5052 N   0  0  0  0  0  0  0  0  0  0  0  0
    3.4481    0.0841   -0.3744 C   0  0  0  0  0  0  0  0  0  0  0  0
    4.2311    1.3322   -0.1667 C   0  0  0  0  0  0  0  0  0  0  0  0
    5.5805    1.4076   -0.3712 C   0  0  0  0  0  0  0  0  0  0  0  0
    6.2883    2.5788   -0.1746 C   0  0  0  0  0  0  0  0  0  0  0  0
    5.6208    3.7127    0.2421 C   0  0  0  0  0  0  0  0  0  0  0  0
    4.2609    3.6039    0.4392 C   0  0  0  0  0  0  0  0  0  0  0  0
    3.6040    2.4557    0.2397 N   0  0  0  0  0  0  0  0  0  0  0  0
    2.1817    0.1179   -0.4259 N   0  0  0  0  0  0  0  0  0  0  0  0
    1.3065   -0.9046   -0.6072 O   0  0  0  0  0  0  0  0  0  0  0  0
  1  2  2  0
  2  3  1  0
  4  3  1  6
  4  5  1  0
  5  6  1  0
  6  7  1  1
  7  8  2  0
  8  9  1  0
  9 10  2  0
 10 11  1  0
 11 12  2  0
  2 13  1  0
 13 14  1  0
 14 15  1  0
 15 16  1  0
 16 17  1  0
 17 18  2  3
 18 19  1  0
 19 20  1  0
 20 21  2  0
 21 22  1  0
 22 23  2  0
 23 24  1  0
 24 25  2  0
 19 26  2  3
 26 27  1  0
  6  4  1  0
 12  7  1  0
 27 13  1  0
 25 20  1  0
M  END
>  <fragInfo>  (1) 
13 14 15 16 17 18 19 26 27
1 2 3
4 5 6
7 8 9 10 11 12
20 21 22 23 24 25


>  <torsionInfo>  (1) 
2 13 1 0
19 20 0 4
3 4 1 2
6 7 2 3


>  <atomInfo>  (1) 
1  -0.2452470OA
2  0.35224030C 
3  -0.3320843N 
4  0.03824551C 
5  -0.0232195C 
6  0.00622258C 
7  -0.0427878A 
8  -0.0586825A 
9  -0.0619824A 
10 -0.0622483A 
11 -0.0619824A 
12 -0.0586825A 
13 -0.1314626N 
14 0.06415690C 
15 -0.0267664C 
16 -0.0155177C 
17 0.00705751C 
18 -0.2367852NA
19 0.21958042C 
20 0.11109937A 
21 -0.0323547A 
22 -0.0584502A 
23 -0.0437662A 
24 0.02762940A 
25 -0.2527810NA
26 -0.0314259NA
27 -0.2613714OA


$$$$
