
     RDKit          3D

 24 26  0  0  0  0  0  0  0  0999 V2000
   -0.0097   -3.3398   -0.1795 O   0  0  0  0  0  0  0  0  0  0  0  0
   -0.4397   -2.1789    0.0440 C   0  0  0  0  0  0  0  0  0  0  0  0
   -1.8677   -2.0569    0.1525 N   0  0  0  0  0  0  0  0  0  0  0  0
   -2.6379   -0.8751   -0.1481 C   0  0  0  0  0  0  0  0  0  0  0  0
   -3.9758   -1.1499   -0.3252 C   0  0  0  0  0  0  0  0  0  0  0  0
   -4.8089   -0.0906   -0.6179 C   0  0  0  0  0  0  0  0  0  0  0  0
   -6.5427   -0.3285   -0.8649 Cl  0  0  0  0  0  0  0  0  0  0  0  0
   -4.3436    1.2034   -0.7340 C   0  0  0  0  0  0  0  0  0  0  0  0
   -3.0054    1.4735   -0.5562 C   0  0  0  0  0  0  0  0  0  0  0  0
   -2.4734    2.7051   -0.6522 F   0  0  0  0  0  0  0  0  0  0  0  0
   -2.1558    0.4271   -0.2627 C   0  0  0  0  0  0  0  0  0  0  0  0
    0.5497   -1.1500    0.1577 N   0  0  0  0  0  0  0  0  0  0  0  0
    1.8123   -1.6539   -0.2964 C   0  0  0  0  0  0  0  0  0  0  0  0
    2.8944   -1.0548    0.5488 C   0  0  0  0  0  0  0  0  0  0  0  0
    2.7979    0.4330    0.4696 C   0  0  1  0  0  0  0  0  0  0  0  0
    1.4969    0.9972    0.8977 C   0  0  0  0  0  0  0  0  0  0  0  0
    0.3031    0.1749    0.6510 C   0  0  1  0  0  0  0  0  0  0  0  0
   -0.7737    0.8629   -0.1023 C   0  0  0  0  0  0  0  0  0  0  0  0
   -0.4826    1.9582   -0.6821 O   0  0  0  0  0  0  0  0  0  0  0  0
    3.8932    1.0100    1.3709 C   0  0  0  0  0  0  0  0  0  0  0  0
    3.0868    0.8888   -0.9411 C   0  0  0  0  0  0  0  0  0  0  0  0
    4.4564    0.5003   -1.4172 C   0  0  0  0  0  0  0  0  0  0  0  0
    5.7466    1.2121   -0.3746 S   0  0  0  0  0  0  0  0  0  0  0  0
    6.4795    0.0319    0.2720 O   0  0  0  0  0  0  0  0  0  0  0  0
  1  2  2  0
  2  3  1  0
  3  4  1  0
  4  5  2  0
  5  6  1  0
  6  7  1  0
  6  8  2  0
  8  9  1  0
  9 10  1  0
  9 11  2  0
  2 12  1  0
 12 13  1  0
 13 14  1  0
 14 15  1  0
 15 16  1  0
 17 16  1  6
 17 18  1  0
 18 19  2  0
 15 20  1  1
 15 21  1  0
 21 22  1  0
 22 23  1  0
 23 24  2  0
 11  4  1  0
 18 11  1  0
 17 12  1  0
M  END
>  <fragInfo>  (1) 
1 2 3 4 5 6 7 8 9 10 11 12 13 14 15 16 17 18 19 20
21
22
23 24


>  <torsionInfo>  (1) 
15 21 0 1
21 22 1 2
22 23 2 3


>  <atomInfo>  (1) 
1  -0.2482462OA
2  0.32199604C 
3  -0.3069181N 
4  0.05773110A 
5  -0.0187941A 
6  0.04557696A 
7  -0.0841525Cl
8  -0.0066916A 
9  0.13717849A 
10 -0.2060652F 
11 0.07920745A 
12 -0.3140675N 
13 0.02355030C 
14 -0.0297938C 
15 -0.0276265C 
16 -0.0194165C 
17 0.09752664C 
18 0.18995696C 
19 -0.2916300OA
20 -0.0594567C 
21 -0.0363285C 
22 0.02111926C 
23 0.00769498S 
24 -0.2628320OA


$$$$
