
     RDKit          3D

 37 38  0  0  0  0  0  0  0  0999 V2000
   -5.9157    4.8522    1.1377 C   0  0  0  0  0  0  0  0  0  0  0  0
   -4.4554    4.5995    0.8043 C   0  0  0  0  0  0  0  0  0  0  0  0
   -3.7916    4.0675    2.0602 C   0  0  0  0  0  0  0  0  0  0  0  0
   -4.3162    3.7083   -0.3187 N   0  0  0  0  0  0  0  0  0  0  0  0
   -3.7324    2.4276   -0.1083 C   0  0  0  0  0  0  0  0  0  0  0  0
   -3.3522    2.1116    1.0553 O   0  0  0  0  0  0  0  0  0  0  0  0
   -3.5544    1.4549   -1.1904 C   0  0  0  0  0  0  0  0  0  0  0  0
   -2.9475    0.2434   -0.7293 N   0  0  0  0  0  0  0  0  0  0  0  0
   -3.7396   -0.8172   -0.2420 C   0  0  0  0  0  0  0  0  0  0  0  0
   -4.0342   -0.8391    1.1067 C   0  0  0  0  0  0  0  0  0  0  0  0
   -4.8127   -1.8857    1.5635 C   0  0  0  0  0  0  0  0  0  0  0  0
   -5.2929   -2.8765    0.7620 C   0  0  0  0  0  0  0  0  0  0  0  0
   -4.9831   -2.8351   -0.5997 C   0  0  0  0  0  0  0  0  0  0  0  0
   -5.6053   -4.1121   -1.6265 Cl  0  0  0  0  0  0  0  0  0  0  0  0
   -4.2173   -1.8186   -1.0905 C   0  0  0  0  0  0  0  0  0  0  0  0
   -1.2240    0.0968   -0.7775 S   0  0  0  0  0  0  0  0  0  0  0  0
   -0.6079    1.3102   -1.4142 O   0  0  0  0  0  0  0  0  0  0  0  0
   -0.9511   -1.0727   -1.7128 O   0  0  0  0  0  0  0  0  0  0  0  0
   -0.5390   -0.1259    0.7732 C   0  0  0  0  0  0  0  0  0  0  0  0
    0.5680   -0.5401    1.1107 C   0  0  0  0  0  0  0  0  0  0  0  0
    1.7240   -0.9986    0.3939 C   0  0  0  0  0  0  0  0  0  0  0  0
    2.7568   -1.3817    1.1053 C   0  0  0  0  0  0  0  0  0  0  0  0
    4.0522   -1.8863    0.7924 C   0  0  0  0  0  0  0  0  0  0  0  0
    5.1067   -0.9988    0.5256 N   0  0  0  0  0  0  0  0  0  0  0  0
    5.5085    0.2067    1.0616 C   0  0  0  0  0  0  0  0  0  0  0  0
    6.7614    0.5156    1.1995 O   0  0  0  0  0  0  0  0  0  0  0  0
    4.5815    1.2105    1.5069 C   0  0  0  0  0  0  0  0  0  0  0  0
    3.6645    1.8413    0.8017 C   0  0  0  0  0  0  0  0  0  0  0  0
    3.4259    1.6378   -0.5389 N   0  0  0  0  0  0  0  0  0  0  0  0
    3.8210    2.2390   -1.5846 C   0  0  0  0  0  0  0  0  0  0  0  0
    3.3908    1.7781   -2.8636 O   0  0  0  0  0  0  0  0  0  0  0  0
    2.6959    0.5413   -2.8306 C   0  0  0  0  0  0  0  0  0  0  0  0
    2.3395    0.1081   -1.6987 C   0  0  0  0  0  0  0  0  0  0  0  0
    1.6667   -0.9879   -1.0998 C   0  0  0  0  0  0  0  0  0  0  0  0
    4.3321   -3.2020    0.7495 C   0  0  0  0  0  0  0  0  0  0  0  0
    5.6508   -3.6599    0.4280 C   0  0  0  0  0  0  0  0  0  0  0  0
    6.0263   -4.9122    0.3587 C   0  0  0  0  0  0  0  0  0  0  0  0
  1  2  1  0
  2  3  1  0
  2  4  1  0
  4  5  1  0
  5  6  2  0
  5  7  1  0
  7  8  1  0
  8  9  1  0
  9 10  2  0
 10 11  1  0
 11 12  2  0
 12 13  1  0
 13 14  1  0
 13 15  2  0
  8 16  1  0
 16 17  2  0
 16 18  2  0
 16 19  1  0
 19 20  2  3
 20 21  1  0
 21 22  2  3
 22 23  1  0
 23 24  1  0
 24 25  1  0
 25 26  2  0
 25 27  1  0
 27 28  2  3
 28 29  1  0
 29 30  2  3
 30 31  1  0
 31 32  1  0
 32 33  2  3
 33 34  1  0
 23 35  2  3
 35 36  1  0
 36 37  2  0
 15  9  1  0
 34 21  1  0
M  END
>  <fragInfo>  (1) 
21 22 23 24 25 26 27 28 29 30 31 32 33 34 35
1 2 3
4 5 6
7
8
9 10 11 12 13 14 15
16 17 18
19 20
36 37


>  <torsionInfo>  (1) 
20 21 7 0
35 36 0 8
2 4 1 2
5 7 2 3
7 8 3 4
8 9 4 5
8 16 4 6
16 19 6 7


>  <atomInfo>  (1) 
1  -0.0450269C 
2  0.02317486C 
3  -0.0450269C 
4  -0.3523539N 
5  0.24048929C 
6  -0.2730032OA
7  0.11319846C 
8  -0.2573596N 
9  0.05388640A 
10 -0.0375889A 
11 -0.0586924A 
12 -0.0433738A 
13 0.04264417A 
14 -0.0842631Cl
15 -0.0189798A 
16 0.25743335S 
17 -0.2016547OA
18 -0.2016547OA
19 0.05168653C 
20 -0.0454145C 
21 -0.0412923C 
22 -0.0349681C 
23 0.04122644C 
24 -0.3224558N 
25 0.24941026C 
26 -0.2695611OA
27 0.02169836C 
28 0.03569976C 
29 -0.2284193NA
30 0.17970558C 
31 -0.4537382OA
32 0.08872606C 
33 -0.0447482C 
34 -0.0063067C 
35 -0.0391040C 
36 -0.0674270C 
37 -0.0989903C 


$$$$
