
     RDKit          3D

 12 12  0  0  0  0  0  0  0  0999 V2000
   -3.7329    0.5631    0.4909 O   0  0  0  0  0  0  0  0  0  0  0  0
   -3.0233    0.4328   -0.5365 C   0  0  0  0  0  0  0  0  0  0  0  0
   -1.7756   -0.2211   -0.3750 N   0  0  0  0  0  0  0  0  0  0  0  0
   -1.0087   -0.3396   -1.5888 C   0  0  0  0  0  0  0  0  0  0  0  0
    0.3037   -0.3088   -1.7594 C   0  0  0  0  0  0  0  0  0  0  0  0
    1.5339   -0.1653   -0.9834 C   0  0  0  0  0  0  0  0  0  0  0  0
    1.6941    0.1196    0.2997 C   0  0  0  0  0  0  0  0  0  0  0  0
    3.1165    0.1826    0.7404 C   0  0  0  0  0  0  0  0  0  0  0  0
    3.9744   -0.0757   -0.3098 F   0  0  0  0  0  0  0  0  0  0  0  0
   -1.5104   -0.6464    0.9805 C   0  0  0  0  0  0  0  0  0  0  0  0
   -0.4112    0.0666    1.6274 C   0  0  0  0  0  0  0  0  0  0  0  0
    0.8394    0.3922    1.4139 N   0  0  0  0  0  0  0  0  0  0  0  0
  1  2  2  0
  2  3  1  0
  3  4  1  0
  4  5  2  3
  5  6  1  0
  6  7  2  3
  7  8  1  0
  8  9  1  0
  3 10  1  0
 10 11  1  0
 11 12  2  3
 12  7  1  0
M  END
>  <fragInfo>  (1) 
3 4 5 6 7 10 11 12
1 2
8 9


>  <torsionInfo>  (1) 
2 3 1 0
7 8 0 2


>  <atomInfo>  (1) 
1  -0.2783056OA
2  0.21350802C 
3  -0.3162857N 
4  0.00697798C 
5  -0.0439161C 
6  -0.0364611C 
7  0.07114572C 
8  0.13139401C 
9  -0.2442267F 
10 0.06028358C 
11 0.02457207C 
12 -0.2609801NA


$$$$
