
     RDKit          3D

 29 33  0  0  0  0  0  0  0  0999 V2000
    3.4430   -0.6708   -0.2915 O   0  0  0  0  0  0  0  0  0  0  0  0
    2.3958   -0.1410    0.1837 C   0  0  0  0  0  0  0  0  0  0  0  0
    2.4778    1.1877    0.5636 N   0  0  0  0  0  0  0  0  0  0  0  0
    3.4350    2.1480    0.5551 C   0  0  2  0  0  0  0  0  0  0  0  0
    3.8776    2.7238   -0.8062 C   0  0  0  0  0  0  0  0  0  0  0  0
    4.8342    2.2779    0.3092 C   0  0  2  0  0  0  0  0  0  0  0  0
    5.8165    1.2893   -0.1047 C   0  0  0  0  0  0  0  0  0  0  0  0
    6.0735    1.0702   -1.4332 C   0  0  0  0  0  0  0  0  0  0  0  0
    7.0151    0.1377   -1.8148 C   0  0  0  0  0  0  0  0  0  0  0  0
    7.6863   -0.5580   -0.8371 C   0  0  0  0  0  0  0  0  0  0  0  0
    7.4238   -0.3321    0.5102 C   0  0  0  0  0  0  0  0  0  0  0  0
    6.4890    0.5901    0.8831 C   0  0  0  0  0  0  0  0  0  0  0  0
    1.2406   -0.9127    0.2922 N   0  0  0  0  0  0  0  0  0  0  0  0
    0.0403   -0.2815    0.8670 C   0  0  0  0  0  0  0  0  0  0  0  0
   -0.8039   -0.0283   -0.3941 C   0  0  0  0  0  0  0  0  0  0  0  0
   -1.2000   -1.4159   -0.9048 C   0  0  0  0  0  0  0  0  0  0  0  0
   -2.6599   -1.5221   -0.6189 C   0  0  0  0  0  0  0  0  0  0  0  0
   -3.4911   -0.4498   -0.4446 N   0  0  0  0  0  0  0  0  0  0  0  0
   -4.7434   -0.8610   -0.2009 C   0  0  0  0  0  0  0  0  0  0  0  0
   -5.9061   -0.0127    0.0402 C   0  0  0  0  0  0  0  0  0  0  0  0
   -5.7278    1.3846    0.0245 C   0  0  0  0  0  0  0  0  0  0  0  0
   -6.7763    2.2501    0.2389 C   0  0  0  0  0  0  0  0  0  0  0  0
   -8.0459    1.7667    0.4776 C   0  0  0  0  0  0  0  0  0  0  0  0
   -8.2430    0.3847    0.4970 C   0  0  0  0  0  0  0  0  0  0  0  0
   -7.1659   -0.4797    0.2762 C   0  0  0  0  0  0  0  0  0  0  0  0
   -4.6756   -2.1921   -0.2267 N   0  0  0  0  0  0  0  0  0  0  0  0
   -3.4282   -2.5678   -0.4767 O   0  0  0  0  0  0  0  0  0  0  0  0
   -0.4394   -2.5379   -0.3268 C   0  0  0  0  0  0  0  0  0  0  0  0
    1.0581   -2.2476   -0.1453 C   0  0  0  0  0  0  0  0  0  0  0  0
  1  2  2  0
  2  3  1  0
  4  3  1  6
  4  5  1  0
  5  6  1  0
  6  7  1  6
  7  8  2  0
  8  9  1  0
  9 10  2  0
 10 11  1  0
 11 12  2  0
  2 13  1  0
 13 14  1  0
 14 15  1  0
 15 16  1  0
 16 17  1  0
 17 18  2  0
 18 19  1  0
 19 20  1  0
 20 21  2  0
 21 22  1  0
 22 23  2  0
 23 24  1  0
 24 25  2  0
 19 26  2  0
 26 27  1  0
 16 28  1  0
 28 29  1  0
  6  4  1  0
 12  7  1  0
 29 13  1  0
 27 17  1  0
 25 20  1  0
M  END
>  <fragInfo>  (1) 
7 8 9 10 11 12
1 2 3
4 5 6
13 14 15 16 28 29
17 18 19 26 27
20 21 22 23 24 25


>  <torsionInfo>  (1) 
6 7 2 0
2 13 1 3
3 4 1 2
16 17 3 4
19 20 4 5


>  <atomInfo>  (1) 
1  -0.2486618OA
2  0.31713168C 
3  -0.3346176N 
4  0.03813915C 
5  -0.0232214C 
6  0.00622073C 
7  -0.0427878A 
8  -0.0586825A 
9  -0.0619824A 
10 -0.0622483A 
11 -0.0619824A 
12 -0.0586825A 
13 -0.3247764N 
14 0.02298412C 
15 -0.0236190C 
16 0.04178086C 
17 0.22970972A 
18 -0.1909701NA
19 0.20191515A 
20 0.02273305A 
21 -0.0510656A 
22 -0.0615338A 
23 -0.0622215A 
24 -0.0615338A 
25 -0.0510656A 
26 -0.0571304NA
27 -0.3386812OA
28 -0.0236190C 
29 0.02298412C 


$$$$
