
     RDKit          3D

 26 29  0  0  0  0  0  0  0  0999 V2000
    1.4768   -2.2324   -0.3035 O   0  0  0  0  0  0  0  0  0  0  0  0
    1.7339   -1.0705    0.0773 C   0  0  0  0  0  0  0  0  0  0  0  0
    3.0789   -0.5895   -0.0158 N   0  0  0  0  0  0  0  0  0  0  0  0
    4.1114   -1.4666   -0.5630 C   0  0  2  0  0  0  0  0  0  0  0  0
    5.1464   -1.8891    0.4824 C   0  0  0  0  0  0  0  0  0  0  0  0
    5.4967   -1.0587   -0.7673 C   0  0  2  0  0  0  0  0  0  0  0  0
    5.9677    0.3062   -0.5501 C   0  0  0  0  0  0  0  0  0  0  0  0
    5.2735    1.4074   -0.9974 C   0  0  0  0  0  0  0  0  0  0  0  0
    5.7523    2.6736   -0.7818 C   0  0  0  0  0  0  0  0  0  0  0  0
    6.9381    2.9125   -0.1161 C   0  0  0  0  0  0  0  0  0  0  0  0
    7.6391    1.8270    0.3342 C   0  0  0  0  0  0  0  0  0  0  0  0
    7.1531    0.5539    0.1155 C   0  0  0  0  0  0  0  0  0  0  0  0
    0.6618   -0.2806    0.5905 N   0  0  0  0  0  0  0  0  0  0  0  0
   -0.6803   -0.9115    0.6204 C   0  0  0  0  0  0  0  0  0  0  0  0
   -0.9876   -1.2590   -0.8184 C   0  0  0  0  0  0  0  0  0  0  0  0
   -2.2877   -1.9348   -0.9623 C   0  0  0  0  0  0  0  0  0  0  0  0
   -3.4286   -1.0668   -0.4793 C   0  0  0  0  0  0  0  0  0  0  0  0
   -4.5319   -1.3262   -1.0624 N   0  0  0  0  0  0  0  0  0  0  0  0
   -5.7146   -0.6840   -0.8050 C   0  0  2  0  0  0  0  0  0  0  0  0
   -5.6925    0.7720   -0.5479 C   0  0  0  0  0  0  0  0  0  0  0  0
   -5.7217    2.2002   -0.1480 C   0  0  0  0  0  0  0  0  0  0  0  0
   -6.1570    2.4507    1.2055 C   0  0  0  0  0  0  0  0  0  0  0  0
   -6.5259    1.3314    2.0644 C   0  0  0  0  0  0  0  0  0  0  0  0
   -6.3945    0.0467    1.3895 C   0  0  0  0  0  0  0  0  0  0  0  0
   -6.0500    0.5466    0.4700 N   0  0  0  0  0  0  0  0  0  0  0  0
   -6.2573   -1.2586    0.6926 C   0  0  0  0  0  0  0  0  0  0  0  0
  1  2  2  0
  2  3  1  0
  4  3  1  1
  4  5  1  0
  5  6  1  0
  6  7  1  1
  7  8  2  0
  8  9  1  0
  9 10  2  0
 10 11  1  0
 11 12  2  0
  2 13  1  0
 13 14  1  0
 14 15  1  0
 15 16  1  0
 16 17  1  0
 17 18  2  3
 18 19  1  0
 19 20  1  0
 20 21  2  0
 21 22  1  0
 22 23  2  0
 23 24  1  0
 24 25  2  0
 19 26  1  1
  6  4  1  0
 12  7  1  0
 25 20  1  0
 26 24  1  0
M  END
>  <fragInfo>  (1) 
19 20 21 22 23 24 25 26
1 2 3 13
4 5 6
7 8 9 10 11 12
14
15
16
17 18


>  <torsionInfo>  (1) 
18 19 7 0
3 4 1 2
13 14 1 4
6 7 2 3
14 15 4 5
15 16 5 6
16 17 6 7


>  <atomInfo>  (1) 
1  -0.2489001OA
2  0.31452704C 
3  -0.3347948N 
4  0.03813201C 
5  -0.0232215C 
6  0.00622061C 
7  -0.0427878A 
8  -0.0586825A 
9  -0.0619824A 
10 -0.0622483A 
11 -0.0619824A 
12 -0.0586825A 
13 -0.3381466N 
14 0.01946623C 
15 -0.0306719C 
16 -0.0161698C 
17 -0.0004153C 
18 -0.2874056NA
19 0.09704261C 
20 0.06558433A 
21 -0.0383062A 
22 -0.0585622A 
23 -0.0404586A 
24 0.04328060A 
25 -0.2554930NA
26 0.01786860C 


$$$$
