
     RDKit          3D

 20 22  0  0  0  0  0  0  0  0999 V2000
   -0.4775    3.7245   -0.4163 O   0  0  0  0  0  0  0  0  0  0  0  0
   -0.4151    2.4701   -0.3647 C   0  0  0  0  0  0  0  0  0  0  0  0
    0.8719    1.9283   -0.6518 N   0  0  0  0  0  0  0  0  0  0  0  0
    1.4974    0.6637   -0.3515 C   0  0  0  0  0  0  0  0  0  0  0  0
    2.8602    0.8899   -0.3737 C   0  0  0  0  0  0  0  0  0  0  0  0
    3.7288   -0.1729   -0.1141 C   0  0  0  0  0  0  0  0  0  0  0  0
    5.4642    0.0417   -0.1256 Cl  0  0  0  0  0  0  0  0  0  0  0  0
    3.1909   -1.4114    0.1553 C   0  0  0  0  0  0  0  0  0  0  0  0
    1.8318   -1.6203    0.1737 C   0  0  0  0  0  0  0  0  0  0  0  0
    1.2742   -2.8238    0.4347 F   0  0  0  0  0  0  0  0  0  0  0  0
    0.9445   -0.5728   -0.0829 C   0  0  0  0  0  0  0  0  0  0  0  0
   -1.6714    1.8943   -0.0255 N   0  0  0  0  0  0  0  0  0  0  0  0
   -1.9677    0.6468    0.6957 C   0  0  1  0  0  0  0  0  0  0  0  0
   -3.4129    0.6002    1.1188 C   0  0  0  0  0  0  0  0  0  0  0  0
   -4.0074   -0.5707    0.3609 C   0  0  2  0  0  0  0  0  0  0  0  0
   -2.8181   -1.5120    0.2822 C   0  0  0  0  0  0  0  0  0  0  0  0
   -1.7414   -0.5594   -0.1920 C   0  0  2  0  0  0  0  0  0  0  0  0
   -0.3893   -1.1522    0.0200 C   0  0  0  0  0  0  0  0  0  0  0  0
   -0.3918   -2.3656    0.3451 O   0  0  0  0  0  0  0  0  0  0  0  0
   -4.3714   -0.0986   -0.8883 F   0  0  0  0  0  0  0  0  0  0  0  0
  1  2  2  0
  2  3  1  0
  3  4  1  0
  4  5  2  0
  5  6  1  0
  6  7  1  0
  6  8  2  0
  8  9  1  0
  9 10  1  0
  9 11  2  0
  2 12  1  0
 12 13  1  0
 13 14  1  6
 14 15  1  0
 15 16  1  0
 17 16  1  1
 17 18  1  0
 18 19  2  0
 15 20  1  6
 11  4  1  0
 18 11  1  0
 17 13  1  0
M  END
>  <fragInfo>  (1) 
1 2 3 4 5 6 7 8 9 10 11 12 13 14 15 16 17 18 19 20


>  <torsionInfo>  (1) 


>  <atomInfo>  (1) 
1  -0.2484985OA
2  0.31899958C 
3  -0.3071075N 
4  0.05764970A 
5  -0.0187955A 
6  0.04557694A 
7  -0.0841525Cl
8  -0.0066929A 
9  0.13710446A 
10 -0.2060665F 
11 0.07736646A 
12 -0.3342853N 
13 0.04351315C 
14 -0.0004202C 
15 0.10287230C 
16 -0.0094656C 
17 0.04573639C 
18 0.17265362C 
19 -0.2935887OA
20 -0.2473826F 


$$$$
