
     RDKit          3D

 21 21  0  0  0  0  0  0  0  0999 V2000
    5.7789    0.5956    1.8696 C   0  0  0  0  0  0  0  0  0  0  0  0
    4.7175   -0.1356    1.0496 C   0  0  0  0  0  0  0  0  0  0  0  0
    4.7621    0.4038   -0.3681 C   0  0  2  0  0  0  0  0  0  0  0  0
    4.4806    1.8843   -0.3732 C   0  0  0  0  0  0  0  0  0  0  0  0
    3.7169   -0.2841   -1.2071 C   0  0  2  0  0  0  0  0  0  0  0  0
    2.4166    0.0011   -0.5834 N   0  0  0  0  0  0  0  0  0  0  0  0
    1.1906   -0.2702   -1.2704 C   0  0  0  0  0  0  0  0  0  0  0  0
    1.3146   -0.7592   -2.4229 O   0  0  0  0  0  0  0  0  0  0  0  0
   -0.0743   -0.0069   -0.6950 N   0  0  0  0  0  0  0  0  0  0  0  0
   -1.2387   -0.3122   -1.4606 C   0  0  0  0  0  0  0  0  0  0  0  0
   -2.4354   -0.6608   -0.5987 C   0  0  0  0  0  0  0  0  0  0  0  0
   -2.5206    0.4276    0.4687 C   0  0  0  0  0  0  0  0  0  0  0  0
   -1.3528    0.2175    1.3884 C   0  0  0  0  0  0  0  0  0  0  0  0
   -0.0917    0.5534    0.6384 C   0  0  0  0  0  0  0  0  0  0  0  0
   -3.8473    0.3813    1.1873 C   0  0  0  0  0  0  0  0  0  0  0  0
   -4.8824    0.5899    0.1649 N   0  0  0  0  0  0  0  0  0  0  0  0
   -6.2159    0.5593    0.7146 C   0  0  0  0  0  0  0  0  0  0  0  0
   -6.4227   -0.8389    1.2910 C   0  0  0  0  0  0  0  0  0  0  0  0
   -6.3126    1.5963    1.8161 C   0  0  0  0  0  0  0  0  0  0  0  0
    3.9219   -1.7723   -1.0745 C   0  0  0  0  0  0  0  0  0  0  0  0
    3.0946   -2.5002   -0.5347 O   0  0  0  0  0  0  0  0  0  0  0  0
  1  2  1  0
  2  3  1  0
  3  4  1  1
  3  5  1  0
  5  6  1  1
  6  7  1  0
  7  8  2  0
  7  9  1  0
  9 10  1  0
 10 11  1  0
 11 12  1  0
 12 13  1  0
 13 14  1  0
 12 15  1  0
 15 16  1  0
 16 17  1  0
 17 18  1  0
 17 19  1  0
  5 20  1  0
 20 21  2  0
 14  9  1  0
M  END
>  <fragInfo>  (1) 
9 10 11 12 13 14
1 2
3 4
5
6 7 8
15
16
17 18 19
20 21


>  <torsionInfo>  (1) 
7 9 4 0
12 15 0 5
2 3 1 2
3 5 2 3
5 6 3 4
5 20 3 8
15 16 5 6
16 17 6 7


>  <atomInfo>  (1) 
1  -0.0650382C 
2  -0.0511841C 
3  -0.0171799C 
4  -0.0601227C 
5  0.08876305C 
6  -0.3282092N 
7  0.31747748C 
8  -0.2486501OA
9  -0.3247959N 
10 0.02253351C 
11 -0.0312451C 
12 -0.0254832C 
13 -0.0312451C 
14 0.02253351C 
15 -0.0016833C 
16 -0.3142553NA
17 0.00104437C 
18 -0.0500315C 
19 -0.0500315C 
20 0.14212711C 
21 -0.3010624OA


$$$$
