
     RDKit          3D

 27 30  0  0  0  0  0  0  0  0999 V2000
    2.7075   -0.2068    2.2232 O   0  0  0  0  0  0  0  0  0  0  0  0
    2.1799    0.9358    2.0645 C   0  0  0  0  0  0  0  0  0  0  0  0
    3.0677    2.0241    1.9218 N   0  0  0  0  0  0  0  0  0  0  0  0
    4.4810    1.8688    1.9539 C   0  0  1  0  0  0  0  0  0  0  0  0
    5.1899    0.6568    2.3564 C   0  0  0  0  0  0  0  0  0  0  0  0
    5.3229    1.2823    0.9316 C   0  0  1  0  0  0  0  0  0  0  0  0
    4.8833    0.3853   -0.1438 C   0  0  0  0  0  0  0  0  0  0  0  0
    4.4255    0.9420   -1.3138 C   0  0  0  0  0  0  0  0  0  0  0  0
    3.9940    0.2167   -2.3757 C   0  0  0  0  0  0  0  0  0  0  0  0
    4.0165   -1.1786   -2.2728 C   0  0  0  0  0  0  0  0  0  0  0  0
    4.4768   -1.7437   -1.0957 C   0  0  0  0  0  0  0  0  0  0  0  0
    4.9081   -0.9834   -0.0351 C   0  0  0  0  0  0  0  0  0  0  0  0
    0.7685    1.0582    2.0394 N   0  0  0  0  0  0  0  0  0  0  0  0
   -0.0172   -0.1509    2.1989 C   0  0  0  0  0  0  0  0  0  0  0  0
    0.3789   -1.0688    1.0347 C   0  0  0  0  0  0  0  0  0  0  0  0
    0.0133   -0.2640   -0.2226 C   0  0  0  0  0  0  0  0  0  0  0  0
   -1.4485   -0.0083   -0.1468 C   0  0  0  0  0  0  0  0  0  0  0  0
   -2.4898   -0.7235   -0.6077 N   0  0  0  0  0  0  0  0  0  0  0  0
   -3.6283   -0.0884   -0.2983 C   0  0  0  0  0  0  0  0  0  0  0  0
   -5.0126   -0.4769   -0.5882 C   0  0  0  0  0  0  0  0  0  0  0  0
   -5.3094   -1.6379   -1.2692 C   0  0  0  0  0  0  0  0  0  0  0  0
   -6.6241   -1.9968   -1.5388 C   0  0  0  0  0  0  0  0  0  0  0  0
   -7.6592   -1.1791   -1.1192 C   0  0  0  0  0  0  0  0  0  0  0  0
   -7.3385   -0.0200   -0.4381 C   0  0  0  0  0  0  0  0  0  0  0  0
   -6.0462    0.2916   -0.1967 N   0  0  0  0  0  0  0  0  0  0  0  0
   -3.2693    1.0259    0.3586 N   0  0  0  0  0  0  0  0  0  0  0  0
   -1.9707    1.0398    0.4296 O   0  0  0  0  0  0  0  0  0  0  0  0
  1  2  2  0
  2  3  1  0
  4  3  1  6
  4  5  1  0
  5  6  1  0
  6  7  1  6
  7  8  2  0
  8  9  1  0
  9 10  2  0
 10 11  1  0
 11 12  2  0
  2 13  1  0
 13 14  1  0
 14 15  1  0
 15 16  1  0
 16 17  1  0
 17 18  2  0
 18 19  1  0
 19 20  1  0
 20 21  2  0
 21 22  1  0
 22 23  2  0
 23 24  1  0
 24 25  2  0
 19 26  2  0
 26 27  1  0
  6  4  1  0
 12  7  1  0
 27 17  1  0
 25 20  1  0
M  END
>  <fragInfo>  (1) 
7 8 9 10 11 12
1 2 3 13
4 5 6
14
15
16
17 18 19 26 27
20 21 22 23 24 25


>  <torsionInfo>  (1) 
6 7 2 0
3 4 1 2
13 14 1 3
14 15 3 4
15 16 4 5
16 17 5 6
19 20 6 7


>  <atomInfo>  (1) 
1  -0.2489001OA
2  0.31452706C 
3  -0.3347948N 
4  0.03813201C 
5  -0.0232215C 
6  0.00622061C 
7  -0.0427878A 
8  -0.0586825A 
9  -0.0619824A 
10 -0.0622483A 
11 -0.0619824A 
12 -0.0586825A 
13 -0.3381441N 
14 0.01961045C 
15 -0.0268123C 
16 0.02864913C 
17 0.22657393A 
18 -0.1898188NA
19 0.22049981A 
20 0.11113063A 
21 -0.0323542A 
22 -0.0584502A 
23 -0.0437662A 
24 0.02762940A 
25 -0.2527805NA
26 -0.0554144NA
27 -0.3389357OA


$$$$
