
     RDKit          3D

 27 30  0  0  0  0  0  0  0  0999 V2000
    0.1029   -3.3433   -0.2032 O   0  0  0  0  0  0  0  0  0  0  0  0
    0.2425   -2.1464    0.1575 C   0  0  0  0  0  0  0  0  0  0  0  0
   -0.5056   -0.9571    0.0575 N   0  0  0  0  0  0  0  0  0  0  0  0
   -1.8777   -0.6678    0.0603 C   0  0  0  0  0  0  0  0  0  0  0  0
   -2.6085   -0.6974    1.2540 C   0  0  0  0  0  0  0  0  0  0  0  0
   -3.9498   -0.4211    1.3298 C   0  0  0  0  0  0  0  0  0  0  0  0
   -4.6232   -0.0960    0.1739 C   0  0  0  0  0  0  0  0  0  0  0  0
   -5.9722    0.1889    0.1985 F   0  0  0  0  0  0  0  0  0  0  0  0
   -3.9319   -0.0584   -1.0177 C   0  0  0  0  0  0  0  0  0  0  0  0
   -4.8440    0.3649   -2.4657 Cl  0  0  0  0  0  0  0  0  0  0  0  0
   -2.5941   -0.3385   -1.0640 C   0  0  0  0  0  0  0  0  0  0  0  0
    0.7162   -0.2318   -0.0399 C   0  0  1  0  0  0  0  0  0  0  0  0
    0.7716    1.1225    0.4937 C   0  0  0  0  0  0  0  0  0  0  0  0
    0.5862    2.1954   -0.3332 C   0  0  0  0  0  0  0  0  0  0  0  0
    0.6401    3.4790    0.1406 C   0  0  0  0  0  0  0  0  0  0  0  0
    0.8871    3.6864    1.4816 C   0  0  0  0  0  0  0  0  0  0  0  0
    1.0709    2.5764    2.2982 C   0  0  0  0  0  0  0  0  0  0  0  0
    1.0094    1.3300    1.7889 N   0  0  0  0  0  0  0  0  0  0  0  0
    1.2662   -1.3149    0.8879 C   0  0  2  0  0  0  0  0  0  0  0  0
    2.6762   -1.6898    0.4902 C   0  0  0  0  0  0  0  0  0  0  0  0
    3.5604   -1.6391    1.7339 C   0  0  0  0  0  0  0  0  0  0  0  0
    4.4142   -0.4668    1.6157 N   0  0  0  0  0  0  0  0  0  0  0  0
    4.5417   -0.1220    0.2751 N   0  0  0  0  0  0  0  0  0  0  0  0
    3.3636    0.4320   -0.1821 O   0  0  0  0  0  0  0  0  0  0  0  0
    2.7305   -0.0279   -1.3259 C   0  0  0  0  0  0  0  0  0  0  0  0
    1.4608   -0.3566   -1.2970 C   0  0  0  0  0  0  0  0  0  0  0  0
    0.8666   -0.8006   -2.4128 F   0  0  0  0  0  0  0  0  0  0  0  0
  1  2  2  0
  2  3  1  0
  3  4  1  0
  4  5  2  0
  5  6  1  0
  6  7  2  0
  7  8  1  0
  7  9  1  0
  9 10  1  0
  9 11  2  0
  3 12  1  0
 12 13  1  1
 13 14  2  0
 14 15  1  0
 15 16  2  0
 16 17  1  0
 17 18  2  0
 12 19  1  0
 19 20  1  6
 20 21  1  0
 21 22  1  0
 22 23  1  0
 23 24  1  0
 24 25  1  0
 25 26  2  3
 26 27  1  0
 19  2  1  0
 11  4  1  0
 26 12  1  0
 18 13  1  0
M  END
>  <fragInfo>  (1) 
1 2 3 12 19 20 21 22 23 24 25 26 27
4 5 6 7 8 9 10 11
13 14 15 16 17 18


>  <torsionInfo>  (1) 
3 4 0 1
12 13 0 2


>  <atomInfo>  (1) 
1  -0.2740179OA
2  0.23413520C 
3  -0.2927517N 
4  0.04684232A 
5  -0.0352460A 
6  -0.0226868A 
7  0.14143861A 
8  -0.2053590F 
9  0.07835185A 
10 -0.0810568Cl
11 -0.0165539A 
12 0.15603917C 
13 0.07439407A 
14 -0.0376130A 
15 -0.0588199A 
16 -0.0437934A 
17 0.02719062A 
18 -0.2582784NA
19 0.07592525C 
20 -0.0242981C 
21 0.01396162C 
22 -0.2248204NA
23 -0.0903981NA
24 -0.3988364OA
25 0.14705581C 
26 0.16988201C 
27 -0.2051645F 


$$$$
