
     RDKit          3D

 29 32  0  0  0  0  0  0  0  0999 V2000
   -3.0255   -0.3279   -1.4702 O   0  0  0  0  0  0  0  0  0  0  0  0
   -2.5737   -0.9396   -0.4837 C   0  0  0  0  0  0  0  0  0  0  0  0
   -3.4943   -1.3492    0.5348 N   0  0  0  0  0  0  0  0  0  0  0  0
   -4.8867   -1.0451    0.3863 C   0  0  1  0  0  0  0  0  0  0  0  0
   -5.8756   -1.2725    1.4368 C   0  0  0  0  0  0  0  0  0  0  0  0
   -5.3917    0.1138    1.3075 C   0  0  2  0  0  0  0  0  0  0  0  0
   -6.1176    1.1303    0.5178 C   0  0  0  0  0  0  0  0  0  0  0  0
   -5.4739    1.7004   -0.5517 C   0  0  0  0  0  0  0  0  0  0  0  0
   -6.0726    2.6596   -1.3483 C   0  0  0  0  0  0  0  0  0  0  0  0
   -7.3462    3.0468   -1.0545 C   0  0  0  0  0  0  0  0  0  0  0  0
   -8.0064    2.4919    0.0066 C   0  0  0  0  0  0  0  0  0  0  0  0
   -7.3979    1.5310    0.7993 C   0  0  0  0  0  0  0  0  0  0  0  0
   -1.1725   -1.2264   -0.3691 N   0  0  0  0  0  0  0  0  0  0  0  0
   -0.2886   -0.7965   -1.4144 C   0  0  0  0  0  0  0  0  0  0  0  0
    0.8529   -1.7781   -1.4926 C   0  0  0  0  0  0  0  0  0  0  0  0
    1.6138   -1.8297   -0.1863 C   0  0  0  0  0  0  0  0  0  0  0  0
    2.8593   -1.0242   -0.2421 C   0  0  0  0  0  0  0  0  0  0  0  0
    2.9904    0.2698   -0.4901 N   0  0  0  0  0  0  0  0  0  0  0  0
    4.3045    0.5512   -0.4350 C   0  0  0  0  0  0  0  0  0  0  0  0
    4.9556    1.8398   -0.6379 C   0  0  0  0  0  0  0  0  0  0  0  0
    6.2617    1.9314   -0.5460 C   0  0  0  0  0  0  0  0  0  0  0  0
    7.0592    0.7572   -0.2438 C   0  0  0  0  0  0  0  0  0  0  0  0
    8.3556    0.7967   -0.1425 C   0  0  0  0  0  0  0  0  0  0  0  0
    9.0787   -0.3962    0.1572 C   0  0  0  0  0  0  0  0  0  0  0  0
    9.6772   -1.3588    0.3909 N   0  0  0  0  0  0  0  0  0  0  0  0
    4.9185   -0.6104   -0.1503 N   0  0  0  0  0  0  0  0  0  0  0  0
    4.0437   -1.5358   -0.0391 O   0  0  0  0  0  0  0  0  0  0  0  0
    0.7838   -1.4027    0.9812 C   0  0  0  0  0  0  0  0  0  0  0  0
   -0.6316   -1.9270    0.7545 C   0  0  0  0  0  0  0  0  0  0  0  0
  1  2  2  0
  2  3  1  0
  4  3  1  1
  4  5  1  0
  5  6  1  0
  6  7  1  6
  7  8  2  0
  8  9  1  0
  9 10  2  0
 10 11  1  0
 11 12  2  0
  2 13  1  0
 13 14  1  0
 14 15  1  0
 15 16  1  0
 16 17  1  0
 17 18  2  0
 18 19  1  0
 19 20  1  0
 20 21  2  3
 21 22  1  0
 22 23  2  3
 23 24  1  0
 24 25  3  0
 19 26  2  0
 26 27  1  0
 16 28  1  0
 28 29  1  0
  6  4  1  0
 12  7  1  0
 29 13  1  0
 27 17  1  0
M  END
>  <fragInfo>  (1) 
7 8 9 10 11 12
1 2 3
4 5 6
13 14 15 16 28 29
17 18 19 26 27
20 21
22 23 24 25


>  <torsionInfo>  (1) 
6 7 2 0
2 13 1 3
3 4 1 2
16 17 3 4
19 20 4 5
21 22 5 6


>  <atomInfo>  (1) 
1  -0.2486618OA
2  0.31713168C 
3  -0.3346176N 
4  0.03813915C 
5  -0.0232214C 
6  0.00622073C 
7  -0.0427878A 
8  -0.0586825A 
9  -0.0619824A 
10 -0.0622483A 
11 -0.0619824A 
12 -0.0586825A 
13 -0.3247764N 
14 0.02298412C 
15 -0.0236190C 
16 0.04178051C 
17 0.22968929A 
18 -0.1916003NA
19 0.19470147A 
20 -0.0137204C 
21 -0.0576810C 
22 -0.0516349C 
23 0.01569142C 
24 0.09115218C 
25 -0.1930989NA
26 -0.0577929NA
27 -0.3387039OA
28 -0.0236190C 
29 0.02298412C 


$$$$
