
     RDKit          3D

 25 27  0  0  0  0  0  0  0  0999 V2000
    5.3034    1.8263   -0.4055 C   0  0  0  0  0  0  0  0  0  0  0  0
    6.1244    0.6586   -0.8764 C   0  0  0  0  0  0  0  0  0  0  0  0
    5.8434   -0.0559    0.4222 C   0  0  2  0  0  0  0  0  0  0  0  0
    5.0906   -1.3477    0.1265 C   0  0  0  0  0  0  0  0  0  0  0  0
    4.9520    1.0868    0.8674 C   0  0  2  0  0  0  0  0  0  0  0  0
    3.5806    0.6389    0.9393 N   0  0  0  0  0  0  0  0  0  0  0  0
    2.5166    1.2095    0.1985 C   0  0  0  0  0  0  0  0  0  0  0  0
    2.7549    2.1667   -0.5767 O   0  0  0  0  0  0  0  0  0  0  0  0
    1.1906    0.7329    0.3069 N   0  0  0  0  0  0  0  0  0  0  0  0
    0.1520    1.3517   -0.4664 C   0  0  0  0  0  0  0  0  0  0  0  0
   -1.1720    0.9783    0.2101 C   0  0  0  0  0  0  0  0  0  0  0  0
   -1.3321   -0.5107    0.0478 C   0  0  0  0  0  0  0  0  0  0  0  0
   -0.0615   -1.2783    0.3098 C   0  0  0  0  0  0  0  0  0  0  0  0
    0.8227   -0.3723    1.1765 C   0  0  0  0  0  0  0  0  0  0  0  0
   -2.0633   -0.8549   -1.2246 C   0  0  0  0  0  0  0  0  0  0  0  0
   -2.7284   -1.9123   -0.4912 N   0  0  0  0  0  0  0  0  0  0  0  0
   -1.8842   -3.0944   -0.4840 C   0  0  0  0  0  0  0  0  0  0  0  0
   -2.4738   -4.2546    0.2440 C   0  0  0  0  0  0  0  0  0  0  0  0
   -1.3323   -3.4213   -1.8374 C   0  0  0  0  0  0  0  0  0  0  0  0
   -2.4947   -1.1537    0.7193 C   0  0  2  0  0  0  0  0  0  0  0  0
   -3.5874   -0.2479    1.1272 C   0  0  0  0  0  0  0  0  0  0  0  0
   -3.9650    0.7383    0.3397 C   0  0  0  0  0  0  0  0  0  0  0  0
   -5.0595    1.6131    0.7922 C   0  0  0  0  0  0  0  0  0  0  0  0
   -5.4582    2.5996    0.0366 C   0  0  0  0  0  0  0  0  0  0  0  0
   -4.7188    2.9034   -1.5022 Cl  0  0  0  0  0  0  0  0  0  0  0  0
  1  2  1  0
  2  3  1  0
  3  4  1  6
  3  5  1  0
  5  6  1  6
  6  7  1  0
  7  8  2  0
  7  9  1  0
  9 10  1  0
 10 11  1  0
 11 12  1  0
 12 13  1  0
 13 14  1  0
 12 15  1  0
 15 16  1  0
 16 17  1  0
 17 18  1  0
 17 19  1  0
 20 16  1  6
 20 21  1  0
 21 22  2  3
 22 23  1  0
 23 24  2  3
 24 25  1  0
  5  1  1  0
 14  9  1  0
 20 12  1  0
M  END
>  <fragInfo>  (1) 
9 10 11 12 13 14 15 16 20
1 2 3 4 5
6 7 8
17 18 19
21 22
23 24 25


>  <torsionInfo>  (1) 
7 9 2 0
16 17 0 3
20 21 0 4
5 6 1 2
22 23 4 5


>  <atomInfo>  (1) 
1  -0.0321249C 
2  -0.0467931C 
3  -0.0237095C 
4  -0.0605475C 
5  0.03311160C 
6  -0.3349908N 
7  0.31712014C 
8  -0.2486620OA
9  -0.3247812N 
10 0.02287004C 
11 -0.0265706C 
12 0.00558730C 
13 -0.0265706C 
14 0.02287004C 
15 0.00663055C 
16 -0.2932956NA
17 0.00449541C 
18 -0.0497845C 
19 -0.0497845C 
20 0.03537225C 
21 -0.0667700C 
22 -0.0638232C 
23 -0.0511694C 
24 0.00423043C 
25 -0.0929558Cl


$$$$
