
     RDKit          3D

 30 34  0  0  0  0  0  0  0  0999 V2000
   -2.4753    0.8935   -2.3833 O   0  0  0  0  0  0  0  0  0  0  0  0
   -2.1743    0.4190   -1.2867 C   0  0  0  0  0  0  0  0  0  0  0  0
   -3.1622   -0.1242   -0.4468 N   0  0  0  0  0  0  0  0  0  0  0  0
   -4.5576   -0.2049   -0.7110 C   0  0  2  0  0  0  0  0  0  0  0  0
   -5.3659    0.7791   -1.4238 C   0  0  0  0  0  0  0  0  0  0  0  0
   -5.3225    0.9389    0.0248 C   0  0  1  0  0  0  0  0  0  0  0  0
   -6.4233    0.5016    0.9040 C   0  0  0  0  0  0  0  0  0  0  0  0
   -7.5429   -0.0575    0.3785 C   0  0  0  0  0  0  0  0  0  0  0  0
   -8.5901   -0.4828    1.1642 C   0  0  0  0  0  0  0  0  0  0  0  0
   -8.4816   -0.3273    2.5373 C   0  0  0  0  0  0  0  0  0  0  0  0
   -7.3644    0.2349    3.1150 C   0  0  0  0  0  0  0  0  0  0  0  0
   -6.3459    0.6431    2.2815 C   0  0  0  0  0  0  0  0  0  0  0  0
   -0.8397    0.3841   -0.7992 N   0  0  0  0  0  0  0  0  0  0  0  0
    0.2825    0.9122   -1.5642 C   0  0  2  0  0  0  0  0  0  0  0  0
    0.9121   -0.1644   -2.4292 C   0  0  0  0  0  0  0  0  0  0  0  0
    1.4853   -1.2388   -1.5615 C   0  0  1  0  0  0  0  0  0  0  0  0
    2.9568   -1.1094   -1.3399 C   0  0  0  0  0  0  0  0  0  0  0  0
    3.5716   -0.5409   -0.2624 N   0  0  0  0  0  0  0  0  0  0  0  0
    4.9056   -0.6120   -0.4193 C   0  0  0  0  0  0  0  0  0  0  0  0
    5.9597   -0.1283    0.4881 C   0  0  0  0  0  0  0  0  0  0  0  0
    7.2141   -0.2858    0.2055 C   0  0  0  0  0  0  0  0  0  0  0  0
    8.3687    0.1084    0.9470 C   0  0  0  0  0  0  0  0  0  0  0  0
    8.3351    0.7435    2.1294 C   0  0  0  0  0  0  0  0  0  0  0  0
    6.6599    1.0580    2.6994 S   0  0  0  0  0  0  0  0  0  0  0  0
    5.5121    0.5237    1.6962 N   0  0  0  0  0  0  0  0  0  0  0  0
    5.0787   -1.2266   -1.6015 N   0  0  0  0  0  0  0  0  0  0  0  0
    3.9044   -1.5146   -2.1334 O   0  0  0  0  0  0  0  0  0  0  0  0
    0.7625   -1.1435   -0.2075 C   0  0  0  0  0  0  0  0  0  0  0  0
    1.4001    0.0647    0.4870 C   0  0  0  0  0  0  0  0  0  0  0  0
    1.3368    1.2463   -0.4882 C   0  0  0  0  0  0  0  0  0  0  0  0
  1  2  2  0
  2  3  1  0
  4  3  1  6
  4  5  1  0
  5  6  1  0
  6  7  1  1
  7  8  2  0
  8  9  1  0
  9 10  2  0
 10 11  1  0
 11 12  2  0
  2 13  1  0
 14 13  1  1
 14 15  1  0
 15 16  1  0
 16 17  1  1
 17 18  2  0
 18 19  1  0
 19 20  1  0
 20 21  2  0
 21 22  1  0
 22 23  2  0
 23 24  1  0
 24 25  2  0
 19 26  2  0
 26 27  1  0
 16 28  1  0
 28 29  1  0
 29 30  1  0
  6  4  1  0
 12  7  1  0
 30 14  1  0
 27 17  1  0
 25 20  1  0
M  END
>  <fragInfo>  (1) 
7 8 9 10 11 12
1 2 3 13
4 5 6
14 15 16 28 29 30
17 18 19 26 27
20 21 22 23 24 25


>  <torsionInfo>  (1) 
6 7 2 0
3 4 1 2
13 14 1 3
16 17 3 4
19 20 4 5


>  <atomInfo>  (1) 
1  -0.2488910OA
2  0.31474364C 
3  -0.3347878N 
4  0.03813214C 
5  -0.0232215C 
6  0.00622061C 
7  -0.0427878A 
8  -0.0586825A 
9  -0.0619824A 
10 -0.0622483A 
11 -0.0619824A 
12 -0.0586825A 
13 -0.3354040N 
14 0.03129851C 
15 -0.0210310C 
16 0.04037036C 
17 0.22969949A 
18 -0.1895322NA
19 0.22153341A 
20 0.12259122C 
21 -0.0305830C 
22 -0.0498980C 
23 -0.0081523C 
24 -0.1452573S 
25 -0.2065856NA
26 -0.0553595NA
27 -0.3386221OA
28 -0.0414462C 
29 -0.0505919C 
30 -0.0326660C 


$$$$
