
     RDKit          3D

 23 25  0  0  0  0  0  0  0  0999 V2000
   -2.3079   -0.2835   -3.6197 O   0  0  0  0  0  0  0  0  0  0  0  0
   -1.7207   -0.2690   -2.5098 C   0  0  0  0  0  0  0  0  0  0  0  0
   -2.5545   -0.7241   -1.4515 N   0  0  0  0  0  0  0  0  0  0  0  0
   -2.5223   -0.4881   -0.0327 C   0  0  0  0  0  0  0  0  0  0  0  0
   -3.8183   -0.6167    0.4197 C   0  0  0  0  0  0  0  0  0  0  0  0
   -4.0797   -0.4389    1.7613 C   0  0  0  0  0  0  0  0  0  0  0  0
   -5.6983   -0.5839    2.4226 Cl  0  0  0  0  0  0  0  0  0  0  0  0
   -3.0319   -0.1386    2.6003 C   0  0  0  0  0  0  0  0  0  0  0  0
   -1.7230   -0.0059    2.1605 C   0  0  0  0  0  0  0  0  0  0  0  0
   -0.7425    0.2939    3.0605 F   0  0  0  0  0  0  0  0  0  0  0  0
   -1.4632   -0.1837    0.8199 C   0  0  0  0  0  0  0  0  0  0  0  0
   -0.3611    0.1940   -2.5447 N   0  0  0  0  0  0  0  0  0  0  0  0
    0.7826    0.0425   -1.7059 C   0  0  0  0  0  0  0  0  0  0  0  0
    2.1078   -0.0150   -2.4038 C   0  0  0  0  0  0  0  0  0  0  0  0
    2.7654    1.3018   -1.9951 C   0  0  0  0  0  0  0  0  0  0  0  0
    2.5603   -0.2184    0.0635 S   0  0  2  0  0  0  0  0  0  0  0  0
    0.9487   -0.0311   -0.4112 C   0  0  0  0  0  0  0  0  0  0  0  0
   -0.0268    0.0224    0.7076 C   0  0  0  0  0  0  0  0  0  0  0  0
    0.5285    0.3160    1.8163 O   0  0  0  0  0  0  0  0  0  0  0  0
    3.5561    0.8441    0.9319 C   0  0  0  0  0  3  0  0  0  0  0  0
    4.9340    0.4660    0.7854 N   0  0  0  0  0  0  0  0  0  0  0  0
    5.2897   -0.0772   -0.3326 C   0  0  0  0  0  0  0  0  0  0  0  0
    6.5771   -0.4606   -0.5426 F   0  0  0  0  0  0  0  0  0  0  0  0
  1  2  2  0
  2  3  1  0
  3  4  1  0
  4  5  2  0
  5  6  1  0
  6  7  1  0
  6  8  2  0
  8  9  1  0
  9 10  1  0
  9 11  2  0
  2 12  1  0
 12 13  1  0
 13 14  1  0
 14 15  1  0
 15 16  1  0
 16 17  1  0
 17 18  1  0
 18 19  2  0
 16 20  1  1
 20 21  1  0
 21 22  2  3
 22 23  1  0
 11  4  1  0
 18 11  1  0
 13 17  2  0
M  RAD  1  20   2
M  END
>  <fragInfo>  (1) 
1 2 3 4 5 6 7 8 9 10 11 12 13 14 15 16 17 18 19
20
21 22 23


>  <torsionInfo>  (1) 
16 20 0 1
20 21 1 2


>  <atomInfo>  (1) 
1  -0.2481159OA
2  0.32298375C 
3  -0.3068100N 
4  0.05804840A 
5  -0.0187818A 
6  0.04557739A 
7  -0.0841525Cl
8  -0.0066791A 
9  0.13749039A 
10 -0.2060523F 
11 0.08251729A 
12 -0.3102679N 
13 0.03616465C 
14 -0.0034457C 
15 -0.0137640C 
16 -0.1961127S 
17 0.05738386C 
18 0.20401267C 
19 -0.2878217OA
20 0.11471737C 
21 -0.2484297NA
22 0.17189839C 
23 -0.1941617F 


$$$$
