
     RDKit          3D

 22 25  0  0  0  0  0  0  0  0999 V2000
    0.3911    3.7545    0.4782 O   0  0  0  0  0  0  0  0  0  0  0  0
    0.2660    2.5029    0.4636 C   0  0  0  0  0  0  0  0  0  0  0  0
    1.4684    1.8148    0.8307 N   0  0  0  0  0  0  0  0  0  0  0  0
    2.0237    0.5320    0.5537 C   0  0  0  0  0  0  0  0  0  0  0  0
    3.3518    0.5685    0.9504 C   0  0  0  0  0  0  0  0  0  0  0  0
    4.1642   -0.5362    0.8086 C   0  0  0  0  0  0  0  0  0  0  0  0
    5.8527   -0.4915    1.3123 Cl  0  0  0  0  0  0  0  0  0  0  0  0
    3.6025   -1.6693    0.2596 C   0  0  0  0  0  0  0  0  0  0  0  0
    2.2758   -1.7018   -0.1354 C   0  0  0  0  0  0  0  0  0  0  0  0
    1.7237   -2.8233   -0.6776 F   0  0  0  0  0  0  0  0  0  0  0  0
    1.4554   -0.6000    0.0032 C   0  0  0  0  0  0  0  0  0  0  0  0
   -1.0570    2.0719    0.0809 N   0  0  0  0  0  0  0  0  0  0  0  0
   -1.6429    0.8264   -0.3081 C   0  0  0  0  0  0  0  0  0  0  0  0
   -3.1199    0.8820   -0.4986 C   0  0  1  0  0  0  0  0  0  0  0  0
   -3.5766   -0.5098   -0.7570 C   0  0  2  0  0  0  0  0  0  0  0  0
   -2.3252   -1.3003   -0.9282 C   0  0  0  0  0  0  0  0  0  0  0  0
   -1.1972   -0.3832   -0.5453 C   0  0  0  0  0  0  0  0  0  0  0  0
    0.1343   -0.9769   -0.5076 C   0  0  0  0  0  0  0  0  0  0  0  0
    0.1784   -2.1194   -1.0565 O   0  0  0  0  0  0  0  0  0  0  0  0
   -4.5949   -0.6396   -1.7829 N   0  0  0  0  0  0  0  0  0  0  0  0
   -3.8834    0.0620    0.5592 C   0  0  2  0  0  0  0  0  0  0  0  0
   -5.4909    0.7362    0.8968 Cl  0  0  0  0  0  0  0  0  0  0  0  0
  1  2  2  0
  2  3  1  0
  3  4  1  0
  4  5  2  0
  5  6  1  0
  6  7  1  0
  6  8  2  0
  8  9  1  0
  9 10  1  0
  9 11  2  0
  2 12  1  0
 12 13  1  0
 14 13  1  1
 14 15  1  0
 15 16  1  0
 16 17  1  0
 17 18  1  0
 18 19  2  0
 15 20  1  6
 15 21  1  0
 21 22  1  6
 11  4  1  0
 18 11  1  0
 13 17  2  0
 21 14  1  0
M  END
>  <fragInfo>  (1) 
1 2 3 4 5 6 7 8 9 10 11 12 13 14 15 16 17 18 19 20 21 22


>  <torsionInfo>  (1) 


>  <atomInfo>  (1) 
1  -0.2481162OA
2  0.32296814C 
3  -0.3068108N 
4  0.05801622A 
5  -0.0187823A 
6  0.04557738A 
7  -0.0841525Cl
8  -0.0066796A 
9  0.13745825A 
10 -0.2060529F 
11 0.08168553A 
12 -0.3106723N 
13 0.03322782C 
14 0.03762033C 
15 0.04690584C 
16 -0.0018835C 
17 0.02201253C 
18 0.19538743C 
19 -0.2887047OA
20 -0.3229448NA
21 0.06268824C 
22 -0.1201513Cl


$$$$
