
     RDKit          3D

 12 12  0  0  0  0  0  0  0  0999 V2000
    3.8592    0.5023    0.7329 O   0  0  0  0  0  0  0  0  0  0  0  0
    3.1707   -0.3739    0.1885 C   0  0  0  0  0  0  0  0  0  0  0  0
    1.8058   -0.1083   -0.2355 N   0  0  0  0  0  0  0  0  0  0  0  0
    1.2049   -1.2472   -0.8331 C   0  0  0  0  0  0  0  0  0  0  0  0
   -0.0259   -1.7233   -0.7830 C   0  0  0  0  0  0  0  0  0  0  0  0
   -1.3126   -1.3648   -0.1431 C   0  0  0  0  0  0  0  0  0  0  0  0
   -1.7487   -0.1365    0.1571 C   0  0  0  0  0  0  0  0  0  0  0  0
   -3.1042   -0.1207    0.8039 C   0  0  0  0  0  0  0  0  0  0  0  0
   -4.0160    0.5910    0.0738 F   0  0  0  0  0  0  0  0  0  0  0  0
    1.3939    1.2201    0.0421 C   0  0  0  0  0  0  0  0  0  0  0  0
    0.0031    1.5564   -0.0141 C   0  0  0  0  0  0  0  0  0  0  0  0
   -1.2302    1.2048    0.0105 N   0  0  0  0  0  0  0  0  0  0  0  0
  1  2  2  0
  2  3  1  0
  3  4  1  0
  4  5  2  3
  5  6  1  0
  6  7  2  3
  7  8  1  0
  8  9  1  0
  3 10  1  0
 10 11  1  0
 11 12  2  3
 12  7  1  0
M  END
>  <fragInfo>  (1) 
3 4 5 6 7 10 11 12
1 2
8 9


>  <torsionInfo>  (1) 
2 3 1 0
7 8 0 2


>  <atomInfo>  (1) 
1  -0.2783056OA
2  0.21350802C 
3  -0.3162857N 
4  0.00697798C 
5  -0.0439161C 
6  -0.0364611C 
7  0.07114572C 
8  0.13139401C 
9  -0.2442267F 
10 0.06028358C 
11 0.02457207C 
12 -0.2609801NA


$$$$
