
     RDKit          3D

 20 21  0  0  0  0  0  0  0  0999 V2000
    2.3372    2.7646   -0.4327 O   0  0  0  0  0  0  0  0  0  0  0  0
    1.6108    1.8489    0.0959 C   0  0  0  0  0  0  0  0  0  0  0  0
    0.2334    2.0228    0.0453 N   0  0  0  0  0  0  0  0  0  0  0  0
   -0.8126    1.1046    0.2611 C   0  0  0  0  0  0  0  0  0  0  0  0
   -1.7186    1.3460    1.3096 C   0  0  0  0  0  0  0  0  0  0  0  0
   -2.7701    0.5517    1.6213 C   0  0  0  0  0  0  0  0  0  0  0  0
   -3.8800    0.8940    2.9451 Cl  0  0  0  0  0  0  0  0  0  0  0  0
   -2.9919   -0.5784    0.8762 C   0  0  0  0  0  0  0  0  0  0  0  0
   -2.1333   -0.8616   -0.1635 C   0  0  0  0  0  0  0  0  0  0  0  0
   -2.4103   -2.0010   -0.8702 F   0  0  0  0  0  0  0  0  0  0  0  0
   -1.0442   -0.0377   -0.4853 C   0  0  0  0  0  0  0  0  0  0  0  0
    2.3046    0.7485    0.6794 N   0  0  0  0  0  0  0  0  0  0  0  0
    1.6310   -0.2814    1.4558 C   0  0  0  0  0  0  0  0  0  0  0  0
    1.4137   -1.5362    0.6686 C   0  0  0  0  0  0  0  0  0  0  0  0
    2.5435   -1.7511   -0.2931 C   0  0  1  0  0  0  0  0  0  0  0  0
    1.9898   -1.5792   -1.6945 C   0  0  0  0  0  0  0  0  0  0  0  0
    1.2255   -0.2539   -1.7612 C   0  0  0  0  0  0  0  0  0  0  0  0
   -0.2391   -0.4714   -1.6127 C   0  0  0  0  0  0  0  0  0  0  0  0
   -0.8578   -1.0923   -2.5496 O   0  0  0  0  0  0  0  0  0  0  0  0
    3.5683   -0.8370   -0.0957 F   0  0  0  0  0  0  0  0  0  0  0  0
  1  2  2  0
  2  3  1  0
  3  4  1  0
  4  5  2  0
  5  6  1  0
  6  7  1  0
  6  8  2  0
  8  9  1  0
  9 10  1  0
  9 11  2  0
  2 12  1  0
 12 13  1  0
 13 14  1  0
 14 15  1  0
 15 16  1  0
 16 17  1  0
 17 18  1  0
 18 19  2  0
 15 20  1  1
 11  4  1  0
 18 11  1  0
M  END
>  <fragInfo>  (1) 
1 2 3 4 5 6 7 8 9 10 11 12 13 14 15 16 17 18 19 20


>  <torsionInfo>  (1) 


>  <atomInfo>  (1) 
1  -0.2485080OA
2  0.31876053C 
3  -0.3071150N 
4  0.05763644A 
5  -0.0187957A 
6  0.04557694A 
7  -0.0841525Cl
8  -0.0066931A 
9  0.13709135A 
10 -0.2060668F 
11 0.07698257A 
12 -0.3377591N 
13 0.02189630C 
14 -0.0040596C 
15 0.10222776C 
16 -0.0143360C 
17 0.01377236C 
18 0.16753239C 
19 -0.2939935OA
20 -0.2474078F 


$$$$
