
     RDKit          3D

 20 22  0  0  0  0  0  0  0  0999 V2000
    0.1085    3.9046   -0.2639 O   0  0  0  0  0  0  0  0  0  0  0  0
   -0.0584    2.6550   -0.1089 C   0  0  0  0  0  0  0  0  0  0  0  0
    1.1857    1.9996   -0.1601 N   0  0  0  0  0  0  0  0  0  0  0  0
    1.6239    0.6475   -0.1567 C   0  0  0  0  0  0  0  0  0  0  0  0
    2.9975    0.6737   -0.1819 C   0  0  0  0  0  0  0  0  0  0  0  0
    3.7079   -0.4908   -0.1850 C   0  0  0  0  0  0  0  0  0  0  0  0
    5.4485   -0.5334   -0.2162 Cl  0  0  0  0  0  0  0  0  0  0  0  0
    3.0355   -1.6916   -0.1628 C   0  0  0  0  0  0  0  0  0  0  0  0
    1.6557   -1.7122   -0.1375 C   0  0  0  0  0  0  0  0  0  0  0  0
    0.8001   -3.2370   -0.1092 Cl  0  0  0  0  0  0  0  0  0  0  0  0
    0.9167   -0.5589   -0.1338 C   0  0  0  0  0  0  0  0  0  0  0  0
   -1.4077    2.2514    0.0700 N   0  0  0  0  0  0  0  0  0  0  0  0
   -2.1217    1.0222    0.2427 C   0  0  0  0  0  0  0  0  0  0  0  0
   -3.5731    1.1614    0.5660 C   0  0  0  0  0  0  0  0  0  0  0  0
   -4.1863    0.6631   -0.7481 C   0  0  0  0  0  0  0  0  0  0  0  0
   -3.0868   -1.3186    0.4829 S   0  0  2  0  0  0  0  0  0  0  0  0
   -1.7686   -0.2323    0.1760 C   0  0  0  0  0  0  0  0  0  0  0  0
   -0.4857   -0.9128   -0.1054 C   0  0  0  0  0  0  0  0  0  0  0  0
   -0.6438   -2.1328   -0.4022 O   0  0  0  0  0  0  0  0  0  0  0  0
   -4.1478   -2.1580    0.4933 Cl  0  0  0  0  0  0  0  0  0  0  0  0
  1  2  2  0
  2  3  1  0
  3  4  1  0
  4  5  2  0
  5  6  1  0
  6  7  1  0
  6  8  2  0
  8  9  1  0
  9 10  1  0
  9 11  2  0
  2 12  1  0
 12 13  1  0
 13 14  1  0
 14 15  1  0
 15 16  1  0
 16 17  1  0
 17 18  1  0
 18 19  2  0
 16 20  1  0
 11  4  1  0
 18 11  1  0
 13 17  2  0
M  END
>  <fragInfo>  (1) 
1 2 3 4 5 6 7 8 9 10 11 12 13 14 15 16 17 18 19 20


>  <torsionInfo>  (1) 


>  <atomInfo>  (1) 
1  -0.2481159OA
2  0.32298351C 
3  -0.3068642N 
4  0.05658699A 
5  -0.0188890A 
6  0.04414796A 
7  -0.0842072Cl
8  -0.0238886A 
9  0.05534559A 
10 -0.0833986Cl
11 0.06546545A 
12 -0.3102299N 
13 0.03718888C 
14 -0.0024162C 
15 -0.0028594C 
16 -0.1421158S 
17 0.06825927C 
18 0.20354015C 
19 -0.2878396OA
20 -0.0642384Cl


$$$$
