
     RDKit          3D

 21 23  0  0  0  0  0  0  0  0999 V2000
    0.3339    3.8235    1.2676 O   0  0  0  0  0  0  0  0  0  0  0  0
    0.1410    2.6415    0.8291 C   0  0  0  0  0  0  0  0  0  0  0  0
    1.2326    1.7885    1.1035 N   0  0  0  0  0  0  0  0  0  0  0  0
    1.6823    0.5282    0.6198 C   0  0  0  0  0  0  0  0  0  0  0  0
    3.0246    0.4211    0.9050 C   0  0  0  0  0  0  0  0  0  0  0  0
    3.7478   -0.7126    0.5496 C   0  0  0  0  0  0  0  0  0  0  0  0
    5.4633   -0.8217    0.9273 Cl  0  0  0  0  0  0  0  0  0  0  0  0
    3.0709   -1.7234   -0.0981 C   0  0  0  0  0  0  0  0  0  0  0  0
    1.7139   -1.6109   -0.3845 C   0  0  0  0  0  0  0  0  0  0  0  0
    1.0312   -2.5921   -1.0196 F   0  0  0  0  0  0  0  0  0  0  0  0
    1.0041   -0.4835   -0.0286 C   0  0  0  0  0  0  0  0  0  0  0  0
   -1.1060    2.4720    0.1808 N   0  0  0  0  0  0  0  0  0  0  0  0
   -1.8756    1.3922   -0.3918 C   0  0  0  0  0  0  0  0  0  0  0  0
   -3.2337    1.7664   -0.7677 C   0  0  0  0  0  0  0  0  0  0  0  0
   -4.1736    0.6241   -0.6561 C   0  0  0  0  0  0  0  0  0  0  0  0
   -2.9485   -0.6601   -1.3443 S   0  0  1  0  0  0  0  0  0  0  0  0
   -1.5252    0.1542   -0.6267 C   0  0  0  0  0  0  0  0  0  0  0  0
   -0.3777   -0.7191   -0.4859 C   0  0  0  0  0  0  0  0  0  0  0  0
   -0.5927   -1.8943   -0.8116 O   0  0  0  0  0  0  0  0  0  0  0  0
   -3.3765   -2.2869   -0.5645 C   0  0  0  0  0  0  0  0  0  0  0  0
   -3.2360   -2.1070    0.7967 F   0  0  0  0  0  0  0  0  0  0  0  0
  1  2  2  0
  2  3  1  0
  3  4  1  0
  4  5  2  0
  5  6  1  0
  6  7  1  0
  6  8  2  0
  8  9  1  0
  9 10  1  0
  9 11  2  0
  2 12  1  0
 12 13  1  0
 13 14  1  0
 14 15  1  0
 15 16  1  0
 16 17  1  0
 17 18  1  0
 18 19  2  0
 16 20  1  1
 20 21  1  0
 11  4  1  0
 18 11  1  0
 13 17  2  0
M  END
>  <fragInfo>  (1) 
1 2 3 4 5 6 7 8 9 10 11 12 13 14 15 16 17 18 19
20 21


>  <torsionInfo>  (1) 
16 20 0 1


>  <atomInfo>  (1) 
1  -0.2481159OA
2  0.32298375C 
3  -0.3068100N 
4  0.05804840A 
5  -0.0187818A 
6  0.04557739A 
7  -0.0841525Cl
8  -0.0066791A 
9  0.13749039A 
10 -0.2060523F 
11 0.08251751A 
12 -0.3102677N 
13 0.03617686C 
14 -0.0034330C 
15 -0.0134598C 
16 -0.1930972S 
17 0.05767520C 
18 0.20402462C 
19 -0.2878215OA
20 0.12152470C 
21 -0.2407599F 


$$$$
