
     RDKit          3D

 22 24  0  0  0  0  0  0  0  0999 V2000
   -1.0022   -2.6661    2.9575 O   0  0  0  0  0  0  0  0  0  0  0  0
   -0.7893   -1.8087    2.0671 C   0  0  0  0  0  0  0  0  0  0  0  0
   -1.8821   -0.9856    1.7574 N   0  0  0  0  0  0  0  0  0  0  0  0
   -2.1844   -0.1312    0.6386 C   0  0  0  0  0  0  0  0  0  0  0  0
   -3.5010    0.2102    0.8509 C   0  0  0  0  0  0  0  0  0  0  0  0
   -4.0979    1.0454   -0.0766 C   0  0  0  0  0  0  0  0  0  0  0  0
   -5.7790    1.4800    0.1965 Cl  0  0  0  0  0  0  0  0  0  0  0  0
   -3.3992    1.5149   -1.1685 C   0  0  0  0  0  0  0  0  0  0  0  0
   -2.0907    1.1697   -1.3706 C   0  0  0  0  0  0  0  0  0  0  0  0
   -1.3430    1.5922   -2.4186 F   0  0  0  0  0  0  0  0  0  0  0  0
   -1.4735    0.3282   -0.4447 C   0  0  0  0  0  0  0  0  0  0  0  0
    0.5671   -1.9054    1.5873 N   0  0  0  0  0  0  0  0  0  0  0  0
    1.3781   -1.2160    0.6445 C   0  0  0  0  0  0  0  0  0  0  0  0
    2.8363   -1.4379    0.7846 C   0  0  0  0  0  0  0  0  0  0  0  0
    3.3872   -0.1479    0.1718 C   0  0  2  0  0  0  0  0  0  0  0  0
    2.4269    0.0205   -1.0078 C   0  0  0  0  0  0  0  0  0  0  0  0
    1.1279   -0.3876   -0.3718 C   0  0  0  0  0  0  0  0  0  0  0  0
   -0.1097    0.1523   -0.9321 C   0  0  0  0  0  0  0  0  0  0  0  0
    0.0670    0.5519   -2.1089 O   0  0  0  0  0  0  0  0  0  0  0  0
    5.0612   -0.5401   -0.4159 S   0  0  0  0  0  0  0  0  0  0  0  0
    5.8252    0.8657   -1.1525 N   0  0  0  0  0  0  0  0  0  0  0  0
    4.9748    2.2953   -0.6361 Cl  0  0  0  0  0  0  0  0  0  0  0  0
  1  2  2  0
  2  3  1  0
  3  4  1  0
  4  5  2  0
  5  6  1  0
  6  7  1  0
  6  8  2  0
  8  9  1  0
  9 10  1  0
  9 11  2  0
  2 12  1  0
 12 13  1  0
 13 14  1  0
 14 15  1  0
 15 16  1  0
 16 17  1  0
 17 18  1  0
 18 19  2  0
 15 20  1  6
 20 21  1  0
 21 22  1  0
 11  4  1  0
 18 11  1  0
 13 17  2  0
M  END
>  <fragInfo>  (1) 
1 2 3 4 5 6 7 8 9 10 11 12 13 14 15 16 17 18 19
20
21 22


>  <torsionInfo>  (1) 
15 20 0 1
20 21 1 2


>  <atomInfo>  (1) 
1  -0.2481164OA
2  0.32295696C 
3  -0.3068110N 
4  0.05801621A 
5  -0.0187823A 
6  0.04557738A 
7  -0.0841525Cl
8  -0.0066796A 
9  0.13745825A 
10 -0.2060529F 
11 0.08168476A 
12 -0.3110472N 
13 0.02780778C 
14 0.00154824C 
15 0.03009952C 
16 -0.0085747C 
17 0.02089356C 
18 0.19534481C 
19 -0.2887054OA
20 -0.0623820SA
21 -0.1764070NA
22 -0.0135003Cl


$$$$
