
     RDKit          3D

 11 11  0  0  0  0  0  0  0  0999 V2000
   -3.1495    0.5192    1.4327 O   0  0  0  0  0  0  0  0  0  0  0  0
   -2.8332   -0.3257    0.5564 C   0  0  0  0  0  0  0  0  0  0  0  0
   -1.4379   -0.5292    0.3550 N   0  0  0  0  0  0  0  0  0  0  0  0
   -0.5159    0.2166    1.1372 C   0  0  0  0  0  0  0  0  0  0  0  0
    0.7337    0.6122    0.8342 C   0  0  0  0  0  0  0  0  0  0  0  0
    1.4401    0.3486   -0.4166 C   0  0  0  0  0  0  0  0  0  0  0  0
    2.7181    0.6626   -0.5270 C   0  0  0  0  0  0  0  0  0  0  0  0
    3.3525    1.2340    0.5494 F   0  0  0  0  0  0  0  0  0  0  0  0
   -1.0805   -1.5032   -0.6546 C   0  0  0  0  0  0  0  0  0  0  0  0
   -0.1418   -1.0022   -1.6637 C   0  0  0  0  0  0  0  0  0  0  0  0
    0.9144   -0.2329   -1.6029 N   0  0  0  0  0  0  0  0  0  0  0  0
  1  2  2  0
  2  3  1  0
  3  4  1  0
  4  5  2  0
  5  6  1  0
  6  7  2  3
  7  8  1  0
  3  9  1  0
  9 10  1  0
 10 11  2  0
 11  6  1  0
M  END
>  <fragInfo>  (1) 
3 4 5 6 7 8 9 10 11
1 2


>  <torsionInfo>  (1) 
2 3 1 0


>  <atomInfo>  (1) 
1  -0.2783056OA
2  0.21350920C 
3  -0.3162066N 
4  0.00914456C 
5  -0.0176613C 
6  0.09228501C 
7  0.11233704C 
8  -0.2131721F 
9  0.06029919C 
10 0.02495225C 
11 -0.2568802NA


$$$$
