
     RDKit          3D

 30 34  0  0  0  0  0  0  0  0999 V2000
    2.0854   -1.6256   -1.2283 O   0  0  0  0  0  0  0  0  0  0  0  0
    2.4602   -1.4272   -0.0458 C   0  0  0  0  0  0  0  0  0  0  0  0
    3.8145   -1.6772    0.3294 N   0  0  0  0  0  0  0  0  0  0  0  0
    4.6956   -2.1641   -0.7105 C   0  0  2  0  0  0  0  0  0  0  0  0
    6.1206   -2.5378   -0.3179 C   0  0  0  0  0  0  0  0  0  0  0  0
    5.8384   -1.3568   -1.1511 C   0  0  2  0  0  0  0  0  0  0  0  0
    6.1564   -0.0341   -0.5695 C   0  0  0  0  0  0  0  0  0  0  0  0
    5.2063    0.9342   -0.4707 C   0  0  0  0  0  0  0  0  0  0  0  0
    5.4563    2.1871    0.0654 C   0  0  0  0  0  0  0  0  0  0  0  0
    6.7417    2.4519    0.5189 C   0  0  0  0  0  0  0  0  0  0  0  0
    7.7088    1.4762    0.4219 C   0  0  0  0  0  0  0  0  0  0  0  0
    7.4394    0.2358   -0.1148 C   0  0  0  0  0  0  0  0  0  0  0  0
    1.4733   -0.9538    0.8620 N   0  0  0  0  0  0  0  0  0  0  0  0
    0.1182   -0.7084    0.4868 C   0  0  2  0  0  0  0  0  0  0  0  0
   -0.2242   -1.0950   -0.9210 C   0  0  0  0  0  0  0  0  0  0  0  0
   -1.3615   -0.2738   -1.4536 C   0  0  1  0  0  0  0  0  0  0  0  0
   -2.6089   -0.4836   -0.6736 C   0  0  0  0  0  0  0  0  0  0  0  0
   -3.7023    0.2829   -0.8364 N   0  0  0  0  0  0  0  0  0  0  0  0
   -4.6789   -0.1316   -0.0042 C   0  0  0  0  0  0  0  0  0  0  0  0
   -6.0213    0.4573    0.1118 C   0  0  0  0  0  0  0  0  0  0  0  0
   -6.3550    1.5264   -0.6810 C   0  0  0  0  0  0  0  0  0  0  0  0
   -7.6046    2.0701   -0.5709 C   0  0  0  0  0  0  0  0  0  0  0  0
   -8.5161    1.5586    0.3166 C   0  0  0  0  0  0  0  0  0  0  0  0
   -8.1566    0.4872    1.0986 C   0  0  0  0  0  0  0  0  0  0  0  0
   -6.9187   -0.0301    0.9712 N   0  0  0  0  0  0  0  0  0  0  0  0
   -4.1518   -1.1663    0.6661 N   0  0  0  0  0  0  0  0  0  0  0  0
   -2.9134   -1.3577    0.2480 O   0  0  0  0  0  0  0  0  0  0  0  0
   -0.9293    1.1848   -1.3833 C   0  0  0  0  0  0  0  0  0  0  0  0
   -0.8330    1.5446    0.0653 C   0  0  0  0  0  0  0  0  0  0  0  0
   -0.3397    0.6259    0.8818 C   0  0  0  0  0  0  0  0  0  0  0  0
  1  2  2  0
  2  3  1  0
  4  3  1  1
  4  5  1  0
  5  6  1  0
  6  7  1  1
  7  8  2  0
  8  9  1  0
  9 10  2  0
 10 11  1  0
 11 12  2  0
  2 13  1  0
 14 13  1  6
 14 15  1  0
 15 16  1  0
 16 17  1  1
 17 18  2  0
 18 19  1  0
 19 20  1  0
 20 21  2  0
 21 22  1  0
 22 23  2  0
 23 24  1  0
 24 25  2  0
 19 26  2  0
 26 27  1  0
 16 28  1  0
 28 29  1  0
 29 30  2  0
  6  4  1  0
 12  7  1  0
 30 14  1  0
 27 17  1  0
 25 20  1  0
M  END
>  <fragInfo>  (1) 
7 8 9 10 11 12
1 2 3 13
4 5 6
14 15 16 28 29 30
17 18 19 26 27
20 21 22 23 24 25


>  <torsionInfo>  (1) 
6 7 2 0
3 4 1 2
13 14 1 3
16 17 3 4
19 20 4 5


>  <atomInfo>  (1) 
1  -0.2488811OA
2  0.31499098C 
3  -0.3347802N 
4  0.03813229C 
5  -0.0232215C 
6  0.00622061C 
7  -0.0427878A 
8  -0.0586825A 
9  -0.0619824A 
10 -0.0622483A 
11 -0.0619824A 
12 -0.0586825A 
13 -0.3319417N 
14 0.04962948C 
15 -0.0170721C 
16 0.04412058C 
17 0.23002472A 
18 -0.1895545NA
19 0.22050885A 
20 0.11113079A 
21 -0.0323542A 
22 -0.0584502A 
23 -0.0437662A 
24 0.02762940A 
25 -0.2527805NA
26 -0.0554004NA
27 -0.3386098OA
28 -0.0232145C 
29 -0.0857144C 
30 -0.0661889C 


$$$$
