
     RDKit          3D

 21 23  0  0  0  0  0  0  0  0999 V2000
   -0.1743    3.9985   -0.2090 O   0  0  0  0  0  0  0  0  0  0  0  0
   -0.2994    2.8017    0.1508 C   0  0  0  0  0  0  0  0  0  0  0  0
    0.9369    2.1801    0.4921 N   0  0  0  0  0  0  0  0  0  0  0  0
    1.4784    0.8475    0.4727 C   0  0  0  0  0  0  0  0  0  0  0  0
    2.8181    0.9646    0.1726 C   0  0  0  0  0  0  0  0  0  0  0  0
    3.6217   -0.1501    0.0780 C   0  0  0  0  0  0  0  0  0  0  0  0
    5.3158    0.1015   -0.3089 Cl  0  0  0  0  0  0  0  0  0  0  0  0
    3.0791   -1.3787    0.2846 C   0  0  0  0  0  0  0  0  0  0  0  0
    1.7445   -1.5152    0.5850 C   0  0  0  0  0  0  0  0  0  0  0  0
    1.0361   -3.0773    0.8517 Cl  0  0  0  0  0  0  0  0  0  0  0  0
    0.9416   -0.4015    0.6796 C   0  0  0  0  0  0  0  0  0  0  0  0
   -1.6632    2.3395    0.1337 N   0  0  0  0  0  0  0  0  0  0  0  0
   -2.3301    1.1306    0.5657 C   0  0  1  0  0  0  0  0  0  0  0  0
   -3.5094    0.7488   -0.3419 C   0  0  0  0  0  0  0  0  0  0  0  0
   -3.9743   -0.6042    0.2196 C   0  0  0  0  0  0  0  0  0  0  0  0
   -3.3540   -2.0144   -0.6728 S   0  0  0  0  0  0  0  0  0  0  0  0
   -1.9251   -2.7958    0.1293 C   0  0  0  0  0  0  0  0  0  0  0  0
   -0.7315   -2.2199    0.4084 C   0  0  0  0  0  0  0  0  0  0  0  0
   -0.4230   -0.8676    1.0145 C   0  0  2  0  0  0  0  0  0  0  0  0
   -1.3454    0.0593    0.3056 C   0  0  0  0  0  0  0  0  0  0  0  0
   -1.2423   -0.1475   -0.9136 O   0  0  0  0  0  0  0  0  0  0  0  0
  1  2  2  0
  2  3  1  0
  3  4  1  0
  4  5  2  0
  5  6  1  0
  6  7  1  0
  6  8  2  0
  8  9  1  0
  9 10  1  0
  9 11  2  0
  2 12  1  0
 12 13  1  0
 13 14  1  6
 14 15  1  0
 15 16  1  0
 16 17  1  0
 17 18  2  3
 18 19  1  0
 19 20  1  0
 20 21  2  0
 11  4  1  0
 19 11  1  6
 20 13  1  0
M  END
>  <fragInfo>  (1) 
1 2 3 4 5 6 7 8 9 10 11 12 13 14 15 16 17 18 19 20 21


>  <torsionInfo>  (1) 


>  <atomInfo>  (1) 
1  -0.2484869OA
2  0.31933112C 
3  -0.3075781N 
4  0.04959828A 
5  -0.0193311A 
6  0.04412069A 
7  -0.0842076Cl
8  -0.0243297A 
9  0.04836688A 
10 -0.0838665Cl
11 0.00884917A 
12 -0.3279935N 
13 0.09104491C 
14 -0.0160447C 
15 -0.0002102C 
16 -0.1343385SA
17 -0.0321565C 
18 -0.0631614C 
19 0.06715978C 
20 0.16606182C 
21 -0.2963254OA


$$$$
