
     RDKit          3D

 29 33  0  0  0  0  0  0  0  0999 V2000
    1.7754    1.2111   -1.3738 O   0  0  0  0  0  0  0  0  0  0  0  0
    2.3786    0.0800   -1.1582 C   0  0  0  0  0  0  0  0  0  0  0  0
    3.7299    0.0494   -1.4542 N   0  0  0  0  0  0  0  0  0  0  0  0
    4.5030    1.1941   -1.9726 C   0  0  1  0  0  0  0  0  0  0  0  0
    4.5587    2.3776   -0.9891 C   0  0  0  0  0  0  0  0  0  0  0  0
    5.7749    1.5389   -1.2803 C   0  0  1  0  0  0  0  0  0  0  0  0
    6.2137    0.5309   -0.2940 C   0  0  0  0  0  0  0  0  0  0  0  0
    5.8041    0.6372    1.0071 C   0  0  0  0  0  0  0  0  0  0  0  0
    6.2380   -0.3506    1.8942 C   0  0  0  0  0  0  0  0  0  0  0  0
    7.0384   -1.3814    1.4826 C   0  0  0  0  0  0  0  0  0  0  0  0
    7.4636   -1.5005    0.1586 C   0  0  0  0  0  0  0  0  0  0  0  0
    7.0092   -0.4989   -0.6856 C   0  0  0  0  0  0  0  0  0  0  0  0
    1.5429   -0.9252   -0.6611 N   0  0  0  0  0  0  0  0  0  0  0  0
    0.1165   -0.7169   -0.4016 C   0  0  1  0  0  0  0  0  0  0  0  0
   -0.3164   -1.2954    0.9157 C   0  0  0  0  0  0  0  0  0  0  0  0
   -1.3180   -0.2474    1.4078 C   0  0  2  0  0  0  0  0  0  0  0  0
   -2.5166   -0.2142    0.5215 C   0  0  0  0  0  0  0  0  0  0  0  0
   -3.8065   -0.2586    0.8951 N   0  0  0  0  0  0  0  0  0  0  0  0
   -4.5999   -0.2073   -0.1831 C   0  0  0  0  0  0  0  0  0  0  0  0
   -6.0820   -0.2320   -0.1941 C   0  0  0  0  0  0  0  0  0  0  0  0
   -6.7306   -0.1762   -1.4074 C   0  0  0  0  0  0  0  0  0  0  0  0
   -8.1045   -0.2029   -1.4686 C   0  0  0  0  0  0  0  0  0  0  0  0
   -8.7717   -0.2850   -0.2721 C   0  0  0  0  0  0  0  0  0  0  0  0
   -8.1041   -0.3390    0.9300 C   0  0  0  0  0  0  0  0  0  0  0  0
   -6.7752   -0.3102    0.9322 N   0  0  0  0  0  0  0  0  0  0  0  0
   -3.7663   -0.1304   -1.2324 N   0  0  0  0  0  0  0  0  0  0  0  0
   -2.5371   -0.1363   -0.7888 O   0  0  0  0  0  0  0  0  0  0  0  0
   -0.5137    1.0284    1.1083 C   0  0  0  0  0  0  0  0  0  0  0  0
   -0.2042    0.7611   -0.3731 C   0  0  0  0  0  0  0  0  0  0  0  0
  1  2  2  0
  2  3  1  0
  4  3  1  1
  4  5  1  0
  5  6  1  0
  6  7  1  1
  7  8  2  0
  8  9  1  0
  9 10  2  0
 10 11  1  0
 11 12  2  0
  2 13  1  0
 14 13  1  1
 14 15  1  0
 15 16  1  0
 16 17  1  6
 17 18  2  0
 18 19  1  0
 19 20  1  0
 20 21  2  0
 21 22  1  0
 22 23  2  0
 23 24  1  0
 24 25  2  0
 19 26  2  0
 26 27  1  0
 16 28  1  0
 28 29  1  0
  6  4  1  0
 12  7  1  0
 29 14  1  0
 27 17  1  0
 25 20  1  0
M  END
>  <fragInfo>  (1) 
7 8 9 10 11 12
1 2 3 13
4 5 6
14 15 16 28 29
17 18 19 26 27
20 21 22 23 24 25


>  <torsionInfo>  (1) 
6 7 2 0
3 4 1 2
13 14 1 3
16 17 3 4
19 20 4 5


>  <atomInfo>  (1) 
1  -0.2488910OA
2  0.31474364C 
3  -0.3347878N 
4  0.03813214C 
5  -0.0232215C 
6  0.00622061C 
7  -0.0427878A 
8  -0.0586825A 
9  -0.0619824A 
10 -0.0622483A 
11 -0.0619824A 
12 -0.0586825A 
13 -0.3354036N 
14 0.03132282C 
15 -0.0210292C 
16 0.04044497C 
17 0.22970035A 
18 -0.1895648NA
19 0.22050869A 
20 0.11113078A 
21 -0.0323542A 
22 -0.0584502A 
23 -0.0437662A 
24 0.02762940A 
25 -0.2527805NA
26 -0.0554006NA
27 -0.3386227OA
28 -0.0395708C 
29 -0.0319292C 


$$$$
