
     RDKit          3D

 11 11  0  0  0  0  0  0  0  0999 V2000
    3.4381   -1.0880    0.0602 O   0  0  0  0  0  0  0  0  0  0  0  0
    2.8493   -0.0215    0.3547 C   0  0  0  0  0  0  0  0  0  0  0  0
    1.4429    0.0788    0.5232 N   0  0  0  0  0  0  0  0  0  0  0  0
    0.6301   -1.0929    0.3518 C   0  0  0  0  0  0  0  0  0  0  0  0
   -0.6527   -1.1290   -0.0619 C   0  0  0  0  0  0  0  0  0  0  0  0
   -1.5091    0.0218   -0.4308 C   0  0  0  0  0  0  0  0  0  0  0  0
   -2.8002   -0.1361   -0.4872 C   0  0  0  0  0  0  0  0  0  0  0  0
   -3.4937   -1.2341   -0.2499 F   0  0  0  0  0  0  0  0  0  0  0  0
    1.0049    1.4172    0.8626 C   0  0  0  0  0  0  0  0  0  0  0  0
    0.0618    1.8722   -0.1918 C   0  0  0  0  0  0  0  0  0  0  0  0
   -0.9712    1.3117   -0.7308 N   0  0  0  0  0  0  0  0  0  0  0  0
  1  2  2  0
  2  3  1  0
  3  4  1  0
  4  5  2  0
  5  6  1  0
  6  7  2  3
  7  8  1  0
  3  9  1  0
  9 10  1  0
 10 11  2  0
 11  6  1  0
M  END
>  <fragInfo>  (1) 
3 4 5 6 7 8 9 10 11
1 2


>  <torsionInfo>  (1) 
2 3 1 0


>  <atomInfo>  (1) 
1  -0.2783056OA
2  0.21350920C 
3  -0.3162066N 
4  0.00914456C 
5  -0.0176613C 
6  0.09228501C 
7  0.11233704C 
8  -0.2131721F 
9  0.06029919C 
10 0.02495225C 
11 -0.2568802NA


$$$$
