
     RDKit          3D

 21 22  0  0  0  0  0  0  0  0999 V2000
    0.0308    3.1776   -1.8047 O   0  0  0  0  0  0  0  0  0  0  0  0
   -0.2922    2.4185   -0.8506 C   0  0  0  0  0  0  0  0  0  0  0  0
   -1.3206    1.4953   -1.0490 N   0  0  0  0  0  0  0  0  0  0  0  0
   -1.6317    0.2900   -0.4326 C   0  0  0  0  0  0  0  0  0  0  0  0
   -2.8613    0.1671    0.2168 C   0  0  0  0  0  0  0  0  0  0  0  0
   -3.3042   -0.9441    0.8556 C   0  0  0  0  0  0  0  0  0  0  0  0
   -4.8757   -1.0234    1.6560 Cl  0  0  0  0  0  0  0  0  0  0  0  0
   -2.4888   -2.0502    0.8756 C   0  0  0  0  0  0  0  0  0  0  0  0
   -1.2556   -2.0089    0.2553 C   0  0  0  0  0  0  0  0  0  0  0  0
   -0.2987   -3.4651    0.3361 Cl  0  0  0  0  0  0  0  0  0  0  0  0
   -0.8282   -0.8429   -0.3968 C   0  0  0  0  0  0  0  0  0  0  0  0
    0.4561    2.6060    0.3424 N   0  0  0  0  0  0  0  0  0  0  0  0
    0.1461    1.9256    1.5853 C   0  0  0  0  0  0  0  0  0  0  0  0
    1.1510    0.8260    1.8508 C   0  0  0  0  0  0  0  0  0  0  0  0
    2.5341    1.3002    1.3893 C   0  0  0  0  0  0  0  0  0  0  0  0
    2.7722    0.4376   -0.2227 S   0  0  0  0  0  0  0  0  0  0  0  0
    1.3712    0.1780   -1.3615 C   0  0  0  0  0  0  0  0  0  0  0  0
    0.4854   -0.9405   -1.0128 C   0  0  0  0  0  0  0  0  0  0  0  0
    0.9532   -2.1007   -1.2956 O   0  0  0  0  0  0  0  0  0  0  0  0
    4.0461   -0.4820   -0.3918 N   0  0  0  0  0  4  0  0  0  0  0  0
    5.2108   -0.9642   -0.5448 C   0  0  0  0  0  0  0  0  0  0  0  0
  1  2  2  0
  2  3  1  0
  3  4  1  0
  4  5  2  0
  5  6  1  0
  6  7  1  0
  6  8  2  0
  8  9  1  0
  9 10  1  0
  9 11  2  0
  2 12  1  0
 12 13  1  0
 13 14  1  0
 14 15  1  0
 15 16  1  0
 16 17  1  0
 17 18  1  0
 18 19  2  0
 16 20  2  0
 20 21  2  0
 11  4  1  0
 18 11  1  0
M  CHG  1  20   1
M  END
>  <fragInfo>  (1) 
1 2 3 4 5 6 7 8 9 10 11 12 13 14 15 16 17 18 19 20 21


>  <torsionInfo>  (1) 


>  <atomInfo>  (1) 
1  -0.2485080OA
2  0.31875871C 
3  -0.3071684N 
4  0.05622498A 
5  -0.0189021A 
6  0.04414754A 
7  -0.0842072Cl
8  -0.0239015A 
9  0.05499551A 
10 -0.0834119Cl
11 0.06130839A 
12 -0.3378230N 
13 0.02038898C 
14 -0.0180151C 
15 0.07027437C 
16 0.10573410S 
17 0.13137380C 
18 0.18477271C 
19 -0.2925523OA
20 -0.0488390N 
21 0.27504268C 


$$$$
