
     RDKit          3D

 20 22  0  0  0  0  0  0  0  0999 V2000
   -0.7574    3.8473   -0.4967 O   0  0  0  0  0  0  0  0  0  0  0  0
   -0.5852    2.5817   -0.4661 C   0  0  0  0  0  0  0  0  0  0  0  0
    0.8064    2.2296   -0.3346 N   0  0  0  0  0  0  0  0  0  0  0  0
    1.4054    0.9671    0.0118 C   0  0  0  0  0  0  0  0  0  0  0  0
    2.6741    1.2704    0.4935 C   0  0  0  0  0  0  0  0  0  0  0  0
    3.5469    0.2930    0.9253 C   0  0  0  0  0  0  0  0  0  0  0  0
    5.1480    0.6944    1.5316 Cl  0  0  0  0  0  0  0  0  0  0  0  0
    3.1115   -1.0147    0.8618 C   0  0  0  0  0  0  0  0  0  0  0  0
    1.8449   -1.3212    0.3812 C   0  0  0  0  0  0  0  0  0  0  0  0
    1.4073   -2.6092    0.3151 F   0  0  0  0  0  0  0  0  0  0  0  0
    0.9767   -0.3436   -0.0488 C   0  0  0  0  0  0  0  0  0  0  0  0
   -1.8027    1.8328   -0.5687 N   0  0  0  0  0  0  0  0  0  0  0  0
   -2.1318    0.5530   -0.0672 C   0  0  1  0  0  0  0  0  0  0  0  0
   -3.2686    0.3914    0.7841 C   0  0  0  0  0  0  0  0  0  0  0  0
   -3.9687   -0.8869    0.6096 C   0  0  0  0  0  0  0  0  0  0  0  0
   -2.6725   -1.9250   -0.1711 S   0  0  2  0  0  0  0  0  0  0  0  0
   -1.6657   -0.6177   -0.7695 C   0  0  2  0  0  0  0  0  0  0  0  0
   -0.2514   -0.9891   -0.4853 C   0  0  0  0  0  0  0  0  0  0  0  0
   -0.0611   -2.2184   -0.6781 O   0  0  0  0  0  0  0  0  0  0  0  0
   -3.7561   -2.7351   -1.8279 Br  0  0  0  0  0  0  0  0  0  0  0  0
  1  2  2  0
  2  3  1  0
  3  4  1  0
  4  5  2  0
  5  6  1  0
  6  7  1  0
  6  8  2  0
  8  9  1  0
  9 10  1  0
  9 11  2  0
  2 12  1  0
 12 13  1  0
 13 14  1  6
 14 15  1  0
 15 16  1  0
 16 17  1  0
 17 18  1  1
 18 19  2  0
 16 20  1  6
 11  4  1  0
 18 11  1  0
 17 13  1  0
M  END
>  <fragInfo>  (1) 
1 2 3 4 5 6 7 8 9 10 11 12 13 14 15 16 17 18 19 20


>  <torsionInfo>  (1) 


>  <atomInfo>  (1) 
1  -0.2484979OA
2  0.31902647C 
3  -0.3071066N 
4  0.05768291A 
5  -0.0187949A 
6  0.04557695A 
7  -0.0841525Cl
8  -0.0066923A 
9  0.13713762A 
10 -0.2060660F 
11 0.07822121A 
12 -0.3335587N 
13 0.04961039C 
14 -0.0229851C 
15 -0.0134506C 
16 -0.1828791S 
17 0.07930338C 
18 0.18144834C 
19 -0.2926812OA
20 -0.0347275Br


$$$$
