
     RDKit          3D

 11 11  0  0  0  0  0  0  0  0999 V2000
   -3.3578    1.1290    0.5431 O   0  0  0  0  0  0  0  0  0  0  0  0
   -2.9465    0.0895   -0.0349 C   0  0  0  0  0  0  0  0  0  0  0  0
   -1.5857   -0.2769    0.2112 N   0  0  0  0  0  0  0  0  0  0  0  0
   -0.8078    0.5506    1.0802 C   0  0  0  0  0  0  0  0  0  0  0  0
    0.5141    0.8027    1.0522 C   0  0  0  0  0  0  0  0  0  0  0  0
    1.4811    0.2711    0.0982 C   0  0  0  0  0  0  0  0  0  0  0  0
    2.7521    0.5840    0.2894 C   0  0  0  0  0  0  0  0  0  0  0  0
    3.7137    0.1318   -0.5502 F   0  0  0  0  0  0  0  0  0  0  0  0
   -1.0875   -1.4642   -0.4377 C   0  0  0  0  0  0  0  0  0  0  0  0
    0.1293   -1.2646   -1.2297 C   0  0  0  0  0  0  0  0  0  0  0  0
    1.1951   -0.5531   -1.0218 N   0  0  0  0  0  0  0  0  0  0  0  0
  1  2  2  0
  2  3  1  0
  3  4  1  0
  4  5  2  0
  5  6  1  0
  6  7  2  3
  7  8  1  0
  3  9  1  0
  9 10  1  0
 10 11  2  0
 11  6  1  0
M  END
>  <fragInfo>  (1) 
3 4 5 6 7 8 9 10 11
1 2


>  <torsionInfo>  (1) 
2 3 1 0


>  <atomInfo>  (1) 
1  -0.2783056OA
2  0.21350920C 
3  -0.3162066N 
4  0.00914456C 
5  -0.0176613C 
6  0.09228501C 
7  0.11233704C 
8  -0.2131721F 
9  0.06029919C 
10 0.02495225C 
11 -0.2568802NA


$$$$
