
     RDKit          3D

 27 30  0  0  0  0  0  0  0  0999 V2000
    1.8071    0.1065    1.0959 O   0  0  0  0  0  0  0  0  0  0  0  0
    1.2917   -0.8700    0.4511 C   0  0  0  0  0  0  0  0  0  0  0  0
    1.9482   -2.1069    0.5840 N   0  0  0  0  0  0  0  0  0  0  0  0
    3.1176   -2.3432    1.3647 C   0  0  1  0  0  0  0  0  0  0  0  0
    4.2850   -2.9342    0.5056 C   0  0  0  0  0  0  0  0  0  0  0  0
    4.3969   -1.6546    1.2101 C   0  0  1  0  0  0  0  0  0  0  0  0
    4.5941   -0.3724    0.5411 C   0  0  0  0  0  0  0  0  0  0  0  0
    4.4189   -0.1476   -0.8161 C   0  0  0  0  0  0  0  0  0  0  0  0
    4.6196    1.0887   -1.3989 C   0  0  0  0  0  0  0  0  0  0  0  0
    5.0146    2.1667   -0.6074 C   0  0  0  0  0  0  0  0  0  0  0  0
    5.1924    1.9648    0.7322 C   0  0  0  0  0  0  0  0  0  0  0  0
    4.9868    0.7228    1.2948 C   0  0  0  0  0  0  0  0  0  0  0  0
    0.1091   -0.6947   -0.3597 N   0  0  0  0  0  0  0  0  0  0  0  0
   -0.3900   -1.8709   -1.0425 C   0  0  0  0  0  0  0  0  0  0  0  0
   -1.0077   -2.8568   -0.0733 C   0  0  0  0  0  0  0  0  0  0  0  0
   -2.4395   -2.3401    0.1403 C   0  0  0  0  0  0  0  0  0  0  0  0
   -2.9335   -1.9599   -1.2034 C   0  0  0  0  0  0  0  0  0  0  0  0
   -3.0944   -0.7664   -1.5599 N   0  0  0  0  0  0  0  0  0  0  0  0
   -2.8868    0.4439   -0.8916 C   0  0  0  0  0  0  0  0  0  0  0  0
   -4.0549    1.3307   -0.6320 C   0  0  0  0  0  0  0  0  0  0  0  0
   -4.0292    2.2285    0.4260 C   0  0  0  0  0  0  0  0  0  0  0  0
   -5.0877    3.0669    0.6844 C   0  0  0  0  0  0  0  0  0  0  0  0
   -6.1860    3.0032   -0.1290 C   0  0  0  0  0  0  0  0  0  0  0  0
   -6.2073    2.1146   -1.1730 C   0  0  0  0  0  0  0  0  0  0  0  0
   -5.1556    1.3270   -1.3774 N   0  0  0  0  0  0  0  0  0  0  0  0
   -1.7790    0.8774   -0.4946 N   0  0  0  0  0  0  0  0  0  0  0  0
   -0.5303    0.4760   -0.5165 O   0  0  0  0  0  0  0  0  0  0  0  0
  1  2  2  0
  2  3  1  0
  4  3  1  6
  4  5  1  0
  5  6  1  0
  6  7  1  6
  7  8  2  0
  8  9  1  0
  9 10  2  0
 10 11  1  0
 11 12  2  0
  2 13  1  0
 13 14  1  0
 14 15  1  0
 15 16  1  0
 16 17  1  0
 17 18  2  3
 18 19  1  0
 19 20  1  0
 20 21  2  0
 21 22  1  0
 22 23  2  0
 23 24  1  0
 24 25  2  0
 19 26  2  3
 26 27  1  0
  6  4  1  0
 12  7  1  0
 27 13  1  0
 25 20  1  0
M  END
>  <fragInfo>  (1) 
13 14 15 16 17 18 19 26 27
1 2 3
4 5 6
7 8 9 10 11 12
20 21 22 23 24 25


>  <torsionInfo>  (1) 
2 13 1 0
19 20 0 4
3 4 1 2
6 7 2 3


>  <atomInfo>  (1) 
1  -0.2452470OA
2  0.35224030C 
3  -0.3320843N 
4  0.03824551C 
5  -0.0232195C 
6  0.00622258C 
7  -0.0427878A 
8  -0.0586825A 
9  -0.0619824A 
10 -0.0622483A 
11 -0.0619824A 
12 -0.0586825A 
13 -0.1314626N 
14 0.06415690C 
15 -0.0267664C 
16 -0.0155177C 
17 0.00705751C 
18 -0.2367852NA
19 0.21958042C 
20 0.11109937A 
21 -0.0323547A 
22 -0.0584502A 
23 -0.0437662A 
24 0.02762940A 
25 -0.2527810NA
26 -0.0314259NA
27 -0.2613714OA


$$$$
