
     RDKit          3D

 11 11  0  0  0  0  0  0  0  0999 V2000
   -3.5334    0.7728   -0.6853 O   0  0  0  0  0  0  0  0  0  0  0  0
   -2.8760   -0.2847   -0.5902 C   0  0  0  0  0  0  0  0  0  0  0  0
   -1.5194   -0.3196   -0.1196 N   0  0  0  0  0  0  0  0  0  0  0  0
   -1.0252    0.9713    0.2184 C   0  0  0  0  0  0  0  0  0  0  0  0
    0.2506    1.3160    0.3571 C   0  0  0  0  0  0  0  0  0  0  0  0
    1.4267    0.4522    0.1948 C   0  0  0  0  0  0  0  0  0  0  0  0
    2.5481    0.9367    0.7052 C   0  0  0  0  0  0  0  0  0  0  0  0
    3.7043    0.2476    0.6270 F   0  0  0  0  0  0  0  0  0  0  0  0
   -0.9088   -1.6137   -0.0709 C   0  0  0  0  0  0  0  0  0  0  0  0
    0.4786   -1.6586   -0.5443 C   0  0  0  0  0  0  0  0  0  0  0  0
    1.4544   -0.8197   -0.4453 N   0  0  0  0  0  0  0  0  0  0  0  0
  1  2  2  0
  2  3  1  0
  3  4  1  0
  4  5  2  0
  5  6  1  0
  6  7  2  3
  7  8  1  0
  3  9  1  0
  9 10  1  0
 10 11  2  0
 11  6  1  0
M  END
>  <fragInfo>  (1) 
3 4 5 6 7 8 9 10 11
1 2


>  <torsionInfo>  (1) 
2 3 1 0


>  <atomInfo>  (1) 
1  -0.2783056OA
2  0.21350920C 
3  -0.3162066N 
4  0.00914456C 
5  -0.0176613C 
6  0.09228501C 
7  0.11233704C 
8  -0.2131721F 
9  0.06029919C 
10 0.02495225C 
11 -0.2568802NA


$$$$
