
     RDKit          3D

 29 32  0  0  0  0  0  0  0  0999 V2000
    1.3414    2.2734   -0.7866 O   0  0  0  0  0  0  0  0  0  0  0  0
    0.9218    1.4069    0.0311 C   0  0  0  0  0  0  0  0  0  0  0  0
    1.9033    0.6119    0.6615 N   0  0  0  0  0  0  0  0  0  0  0  0
    3.2933    0.8366    0.3336 C   0  0  1  0  0  0  0  0  0  0  0  0
    4.0913    1.5339    1.4156 C   0  0  0  0  0  0  0  0  0  0  0  0
    4.2982    0.0629    1.1368 C   0  0  2  0  0  0  0  0  0  0  0  0
    5.5752   -0.3116    0.4578 C   0  0  0  0  0  0  0  0  0  0  0  0
    6.7245    0.4261    0.5837 C   0  0  0  0  0  0  0  0  0  0  0  0
    7.8738    0.0525   -0.0528 C   0  0  0  0  0  0  0  0  0  0  0  0
    7.8751   -1.0821   -0.8314 C   0  0  0  0  0  0  0  0  0  0  0  0
    6.7327   -1.8229   -0.9616 C   0  0  0  0  0  0  0  0  0  0  0  0
    5.5797   -1.4506   -0.3247 C   0  0  0  0  0  0  0  0  0  0  0  0
   -0.4778    1.3056    0.2460 N   0  0  0  0  0  0  0  0  0  0  0  0
   -1.3033    2.2521   -0.5242 C   0  0  0  0  0  0  0  0  0  0  0  0
   -2.4063    1.4301   -1.1382 C   0  0  0  0  0  0  0  0  0  0  0  0
   -3.7462    1.9671   -0.7701 C   0  0  1  0  0  0  0  0  0  0  0  0
   -4.2145    1.6147    0.5678 C   0  0  0  0  0  0  0  0  0  0  0  0
   -4.0196    0.5799    1.2491 N   0  0  0  0  0  0  0  0  0  0  0  0
   -3.2888   -0.5421    0.9188 C   0  0  0  0  0  0  0  0  0  0  0  0
   -3.9441   -1.8392    0.6583 C   0  0  0  0  0  0  0  0  0  0  0  0
   -3.2873   -2.8172   -0.0933 C   0  0  0  0  0  0  0  0  0  0  0  0
   -3.8467   -4.0492   -0.3637 C   0  0  0  0  0  0  0  0  0  0  0  0
   -5.1053   -4.3394    0.1221 C   0  0  0  0  0  0  0  0  0  0  0  0
   -5.7592   -3.3830    0.8630 C   0  0  0  0  0  0  0  0  0  0  0  0
   -5.1829   -2.1623    1.1203 C   0  0  0  0  0  0  0  0  0  0  0  0
   -1.9955   -0.5351    0.8418 N   0  0  0  0  0  0  0  0  0  0  0  0
   -1.1470    0.4716    1.0487 O   0  0  0  0  0  0  0  0  0  0  0  0
   -3.7675    3.4589   -0.9347 C   0  0  0  0  0  0  0  0  0  0  0  0
   -2.7182    4.0505   -0.0227 C   0  0  0  0  0  0  0  0  0  0  0  0
  1  2  2  0
  2  3  1  0
  4  3  1  1
  4  5  1  0
  5  6  1  0
  6  7  1  6
  7  8  2  0
  8  9  1  0
  9 10  2  0
 10 11  1  0
 11 12  2  0
  2 13  1  0
 13 14  1  0
 14 15  1  0
 15 16  1  0
 16 17  1  0
 17 18  2  3
 18 19  1  0
 19 20  1  0
 20 21  2  0
 21 22  1  0
 22 23  2  0
 23 24  1  0
 24 25  2  0
 19 26  2  3
 26 27  1  0
 16 28  1  1
 28 29  1  0
  6  4  1  0
 12  7  1  0
 27 13  1  0
 25 20  1  0
M  END
>  <fragInfo>  (1) 
13 14 15 16 17 18 19 26 27
1 2 3
4 5 6
7 8 9 10 11 12
20 21 22 23 24 25
28 29


>  <torsionInfo>  (1) 
2 13 1 0
16 28 0 5
19 20 0 4
3 4 1 2
6 7 2 3


>  <atomInfo>  (1) 
1  -0.2452470OA
2  0.35224046C 
3  -0.3320843N 
4  0.03824551C 
5  -0.0232195C 
6  0.00622258C 
7  -0.0427878A 
8  -0.0586825A 
9  -0.0619824A 
10 -0.0622483A 
11 -0.0619824A 
12 -0.0586825A 
13 -0.1314528N 
14 0.06442244C 
15 -0.0239172C 
16 -0.0041390C 
17 0.01008998C 
18 -0.2378566NA
19 0.20097030C 
20 0.02270152A 
21 -0.0510660A 
22 -0.0615338A 
23 -0.0622215A 
24 -0.0615338A 
25 -0.0510660A 
26 -0.0331553NA
27 -0.2614303OA
28 -0.0482520C 
29 -0.0647640C 


$$$$
