
     RDKit          3D

 21 23  0  0  0  0  0  0  0  0999 V2000
   -0.8226    3.1260   -0.8248 O   0  0  0  0  0  0  0  0  0  0  0  0
   -0.4284    2.0320   -0.3454 C   0  0  0  0  0  0  0  0  0  0  0  0
    0.9522    1.9739    0.0502 N   0  0  0  0  0  0  0  0  0  0  0  0
    1.8043    0.8405    0.1501 C   0  0  0  0  0  0  0  0  0  0  0  0
    3.1473    1.1398    0.2289 C   0  0  0  0  0  0  0  0  0  0  0  0
    4.1000    0.1513    0.3299 C   0  0  0  0  0  0  0  0  0  0  0  0
    5.8158    0.4722    0.4329 Cl  0  0  0  0  0  0  0  0  0  0  0  0
    3.6781   -1.1579    0.3508 C   0  0  0  0  0  0  0  0  0  0  0  0
    2.3409   -1.4669    0.2727 C   0  0  0  0  0  0  0  0  0  0  0  0
    1.9418   -2.7664    0.2947 F   0  0  0  0  0  0  0  0  0  0  0  0
    1.3983   -0.4871    0.1727 C   0  0  0  0  0  0  0  0  0  0  0  0
   -1.3404    0.9535   -0.2268 N   0  0  0  0  0  0  0  0  0  0  0  0
   -2.5666    1.2454   -0.9232 C   0  0  0  0  0  0  0  0  0  0  0  0
   -3.7082    0.9601    0.0091 C   0  0  0  0  0  0  0  0  0  0  0  0
   -3.6756   -0.4545    0.4847 C   0  0  1  0  0  0  0  0  0  0  0  0
   -2.4043   -1.1832    0.2166 C   0  0  0  0  0  0  0  0  0  0  0  0
   -1.1943   -0.3144    0.4621 C   0  0  1  0  0  0  0  0  0  0  0  0
    0.0400   -1.0261    0.1019 C   0  0  0  0  0  0  0  0  0  0  0  0
   -0.0331   -2.2248   -0.3152 O   0  0  0  0  0  0  0  0  0  0  0  0
   -4.0628   -0.4712    1.9544 C   0  0  0  0  0  0  0  0  0  0  0  0
   -4.9824   -1.3422   -0.3764 Cl  0  0  0  0  0  0  0  0  0  0  0  0
  1  2  2  0
  2  3  1  0
  3  4  1  0
  4  5  2  0
  5  6  1  0
  6  7  1  0
  6  8  2  0
  8  9  1  0
  9 10  1  0
  9 11  2  0
  2 12  1  0
 12 13  1  0
 13 14  1  0
 14 15  1  0
 15 16  1  0
 17 16  1  6
 17 18  1  0
 18 19  2  0
 15 20  1  1
 15 21  1  0
 11  4  1  0
 18 11  1  0
 17 12  1  0
M  END
>  <fragInfo>  (1) 
1 2 3 4 5 6 7 8 9 10 11 12 13 14 15 16 17 18 19 20 21


>  <torsionInfo>  (1) 


>  <atomInfo>  (1) 
1  -0.2482462OA
2  0.32199742C 
3  -0.3069181N 
4  0.05773111A 
5  -0.0187941A 
6  0.04557696A 
7  -0.0841525Cl
8  -0.0066916A 
9  0.13717850A 
10 -0.2060652F 
11 0.07920827A 
12 -0.3139775N 
13 0.02469936C 
14 -0.0161375C 
15 0.04592718C 
16 -0.0057726C 
17 0.09867202C 
18 0.19000264C 
19 -0.2916291OA
20 -0.0457049C 
21 -0.1194391Cl


$$$$
