
     RDKit          3D

 24 26  0  0  0  0  0  0  0  0999 V2000
   -1.9206    0.3964   -3.5935 O   0  0  0  0  0  0  0  0  0  0  0  0
   -1.5292    0.1768   -2.4202 C   0  0  0  0  0  0  0  0  0  0  0  0
   -2.6293   -0.1338   -1.5730 N   0  0  0  0  0  0  0  0  0  0  0  0
   -2.8210   -0.1839   -0.1588 C   0  0  0  0  0  0  0  0  0  0  0  0
   -4.1973   -0.3098    0.0426 C   0  0  0  0  0  0  0  0  0  0  0  0
   -4.7333   -0.3851    1.3111 C   0  0  0  0  0  0  0  0  0  0  0  0
   -6.4704   -0.5439    1.5805 Cl  0  0  0  0  0  0  0  0  0  0  0  0
   -3.8604   -0.3321    2.3810 C   0  0  0  0  0  0  0  0  0  0  0  0
   -2.4831   -0.2062    2.1876 C   0  0  0  0  0  0  0  0  0  0  0  0
   -1.3532   -0.1353    3.5209 Cl  0  0  0  0  0  0  0  0  0  0  0  0
   -1.9591   -0.1317    0.9142 C   0  0  0  0  0  0  0  0  0  0  0  0
   -0.1094    0.2899   -2.2273 N   0  0  0  0  0  0  0  0  0  0  0  0
    0.8025   -0.0223   -1.1616 C   0  0  0  0  0  0  0  0  0  0  0  0
    2.2189   -0.2720   -1.5406 C   0  0  0  0  0  0  0  0  0  0  0  0
    2.9821   -0.1689   -0.2446 C   0  0  2  0  0  0  0  0  0  0  0  0
    1.9469   -0.4882    0.8061 C   0  0  0  0  0  0  0  0  0  0  0  0
    0.6714   -0.1469    0.1435 C   0  0  0  0  0  0  0  0  0  0  0  0
   -0.5108   -0.0066    1.0317 C   0  0  0  0  0  0  0  0  0  0  0  0
   -0.2009    0.3085    2.2216 O   0  0  0  0  0  0  0  0  0  0  0  0
    3.5705    1.1499   -0.0516 N   0  0  0  0  0  0  0  0  0  0  0  0
    4.1366   -1.1607   -0.1985 C   0  0  0  0  0  0  0  0  0  0  0  0
    5.2473   -0.7845   -1.5834 S   0  0  0  0  0  0  0  0  0  0  0  0
    6.0468    0.8272   -1.3866 C   0  0  0  0  0  0  0  0  0  0  0  0
    7.1551    0.8422   -0.0014 Cl  0  0  0  0  0  0  0  0  0  0  0  0
  1  2  2  0
  2  3  1  0
  3  4  1  0
  4  5  2  0
  5  6  1  0
  6  7  1  0
  6  8  2  0
  8  9  1  0
  9 10  1  0
  9 11  2  0
  2 12  1  0
 12 13  1  0
 13 14  1  0
 14 15  1  0
 15 16  1  0
 16 17  1  0
 17 18  1  0
 18 19  2  0
 15 20  1  1
 15 21  1  0
 21 22  1  0
 22 23  1  0
 23 24  1  0
 11  4  1  0
 18 11  1  0
 13 17  2  0
M  END
>  <fragInfo>  (1) 
1 2 3 4 5 6 7 8 9 10 11 12 13 14 15 16 17 18 19 20
21
22
23 24


>  <torsionInfo>  (1) 
15 21 0 1
21 22 1 2
22 23 2 3


>  <atomInfo>  (1) 
1  -0.2481164OA
2  0.32295662C 
3  -0.3068652N 
4  0.05655428A 
5  -0.0188896A 
6  0.04414795A 
7  -0.0842072Cl
8  -0.0238892A 
9  0.05531288A 
10 -0.0833991Cl
11 0.06459390A 
12 -0.3110168N 
13 0.02854537C 
14 0.00721725C 
15 0.03441630C 
16 -0.0028939C 
17 0.02157323C 
18 0.19392049C 
19 -0.2887629OA
20 -0.3237736NA
21 0.01327105C 
22 -0.1437956SA
23 0.06804671C 
24 -0.1148760Cl


$$$$
