
     RDKit          3D

 21 22  0  0  0  0  0  0  0  0999 V2000
    0.3913    2.9008   -2.0626 O   0  0  0  0  0  0  0  0  0  0  0  0
    0.0034    2.2682   -1.0148 C   0  0  0  0  0  0  0  0  0  0  0  0
   -1.1197    1.4737   -1.1393 N   0  0  0  0  0  0  0  0  0  0  0  0
   -1.6429    0.4477   -0.3185 C   0  0  0  0  0  0  0  0  0  0  0  0
   -2.8652    0.6356    0.3505 C   0  0  0  0  0  0  0  0  0  0  0  0
   -3.4529   -0.2877    1.1549 C   0  0  0  0  0  0  0  0  0  0  0  0
   -4.9799    0.1104    1.9129 Cl  0  0  0  0  0  0  0  0  0  0  0  0
   -2.8513   -1.4967    1.3575 C   0  0  0  0  0  0  0  0  0  0  0  0
   -1.6510   -1.7261    0.7218 C   0  0  0  0  0  0  0  0  0  0  0  0
   -0.9088   -3.3061    1.0109 Cl  0  0  0  0  0  0  0  0  0  0  0  0
   -1.0398   -0.7753   -0.1105 C   0  0  0  0  0  0  0  0  0  0  0  0
    0.8079    2.4912    0.1287 N   0  0  0  0  0  0  0  0  0  0  0  0
    1.0205    1.5339    1.1793 C   0  0  0  0  0  0  0  0  0  0  0  0
    2.4142    0.9586    0.9917 C   0  0  0  0  0  0  0  0  0  0  0  0
    3.1181    1.5800   -0.1925 C   0  0  0  0  0  0  0  0  0  0  0  0
    2.6751   -0.3500   -1.3258 S   0  0  2  0  0  0  0  0  0  0  0  0
    1.2761   -0.2592   -1.2139 C   0  0  0  0  0  0  0  0  0  0  0  0
    0.2286   -1.1794   -0.7159 C   0  0  0  0  0  0  0  0  0  0  0  0
    0.4615   -2.4108   -0.8290 O   0  0  0  0  0  0  0  0  0  0  0  0
    4.0767   -1.2403   -0.8374 C   0  0  0  0  0  0  0  0  0  0  0  0
    4.0382   -1.3683    0.9522 Cl  0  0  0  0  0  0  0  0  0  0  0  0
  1  2  2  0
  2  3  1  0
  3  4  1  0
  4  5  2  0
  5  6  1  0
  6  7  1  0
  6  8  2  0
  8  9  1  0
  9 10  1  0
  9 11  2  0
  2 12  1  0
 12 13  1  0
 13 14  1  0
 14 15  1  0
 15 16  1  0
 16 17  1  0
 17 18  1  0
 18 19  2  0
 16 20  1  1
 20 21  1  0
 11  4  1  0
 18 11  1  0
M  END
>  <fragInfo>  (1) 
1 2 3 4 5 6 7 8 9 10 11 12 13 14 15 16 17 18 19
20 21


>  <torsionInfo>  (1) 
16 20 0 1


>  <atomInfo>  (1) 
1  -0.2485080OA
2  0.31875851C 
3  -0.3071686N 
4  0.05620827A 
5  -0.0189024A 
6  0.04414753A 
7  -0.0842072Cl
8  -0.0239018A 
9  0.05497880A 
10 -0.0834121Cl
11 0.06070742A 
12 -0.3378383N 
13 0.01985082C 
14 -0.0281183C 
15 -0.0222030C 
16 -0.2329546S 
17 0.03995227C 
18 0.17412297C 
19 -0.2931797OA
20 0.05067239C 
21 -0.1166908Cl


$$$$
