
     RDKit          3D

 21 21  0  0  0  0  0  0  0  0999 V2000
   -4.8996    1.7045   -1.6999 C   0  0  0  0  0  0  0  0  0  0  0  0
   -4.4854    1.8704   -0.2605 C   0  0  0  0  0  0  0  0  0  0  0  0
   -4.5647    0.6083    0.5502 C   0  0  2  0  0  0  0  0  0  0  0  0
   -4.1172    0.9695    1.9693 C   0  0  0  0  0  0  0  0  0  0  0  0
   -3.6273   -0.4368    0.0384 C   0  0  2  0  0  0  0  0  0  0  0  0
   -2.2599    0.0124    0.0650 N   0  0  0  0  0  0  0  0  0  0  0  0
   -1.2160   -0.7733   -0.4940 C   0  0  0  0  0  0  0  0  0  0  0  0
   -1.5280   -1.8908   -1.0252 O   0  0  0  0  0  0  0  0  0  0  0  0
    0.1261   -0.3361   -0.4646 N   0  0  0  0  0  0  0  0  0  0  0  0
    0.4800    0.9193    0.1412 C   0  0  0  0  0  0  0  0  0  0  0  0
    1.6548    0.7955    1.0799 C   0  0  0  0  0  0  0  0  0  0  0  0
    2.6204   -0.2462    0.7256 C   0  0  0  0  0  0  0  0  0  0  0  0
    2.1839   -1.4453    0.0115 C   0  0  0  0  0  0  0  0  0  0  0  0
    1.1615   -1.1429   -1.0501 C   0  0  0  0  0  0  0  0  0  0  0  0
    4.0553    0.0586    0.8286 C   0  0  0  0  0  0  0  0  0  0  0  0
    4.9245   -1.0280    0.4532 N   0  0  0  0  0  0  0  0  0  0  0  0
    6.2920   -0.5646    0.6351 C   0  0  0  0  0  0  0  0  0  0  0  0
    6.4994    0.5960   -0.3119 C   0  0  0  0  0  0  0  0  0  0  0  0
    6.4284   -0.1350    2.0760 C   0  0  0  0  0  0  0  0  0  0  0  0
   -4.1255   -1.2023   -1.4825 S   0  0  0  0  0  0  0  0  0  0  0  0
   -5.6028   -0.9357   -1.7851 O   0  0  0  0  0  0  0  0  0  0  0  0
  1  2  1  0
  2  3  1  0
  3  4  1  1
  3  5  1  0
  5  6  1  6
  6  7  1  0
  7  8  2  0
  7  9  1  0
  9 10  1  0
 10 11  1  0
 11 12  1  0
 12 13  1  0
 13 14  1  0
 12 15  1  0
 15 16  1  0
 16 17  1  0
 17 18  1  0
 17 19  1  0
  5 20  1  0
 20 21  2  0
 14  9  1  0
M  END
>  <fragInfo>  (1) 
9 10 11 12 13 14
1 2
3 4
5
6 7 8
15
16
17 18 19
20 21


>  <torsionInfo>  (1) 
7 9 4 0
12 15 0 5
2 3 1 2
3 5 2 3
5 6 3 4
5 20 3 8
15 16 5 6
16 17 6 7


>  <atomInfo>  (1) 
1  -0.0650192C 
2  -0.0506996C 
3  -0.0122765C 
4  -0.0596372C 
5  0.10594974C 
6  -0.3236444N 
7  0.31785092C 
8  -0.2486342OA
9  -0.3247838N 
10 0.02253375C 
11 -0.0312451C 
12 -0.0254832C 
13 -0.0312451C 
14 0.02253375C 
15 -0.0016833C 
16 -0.3142553NA
17 0.00104437C 
18 -0.0500315C 
19 -0.0500315C 
20 0.03099372S 
21 -0.2606808OA


$$$$
