
     RDKit          3D

 27 31  0  0  0  0  0  0  0  0999 V2000
   -3.4321   -0.5002    1.3866 O   0  0  0  0  0  0  0  0  0  0  0  0
   -2.8975    0.4202    0.7205 C   0  0  0  0  0  0  0  0  0  0  0  0
   -3.7395    1.4503    0.2794 N   0  0  0  0  0  0  0  0  0  0  0  0
   -5.0947    1.6357    0.4586 C   0  0  1  0  0  0  0  0  0  0  0  0
   -6.1636    1.5147   -0.5247 C   0  0  2  0  0  0  0  0  0  0  0  0
   -6.1457    0.7055    0.7743 C   0  0  1  0  0  0  0  0  0  0  0  0
   -6.1076   -0.7266    0.6102 C   0  0  0  0  0  0  0  0  0  0  0  0
   -6.0946   -1.3232   -0.5487 C   0  0  0  0  0  0  0  0  0  0  0  0
   -6.1176   -0.5590   -1.7640 C   0  0  0  0  0  0  0  0  0  0  0  0
   -6.1495    0.7500   -1.7318 C   0  0  0  0  0  0  0  0  0  0  0  0
   -1.5301    0.4267    0.4252 N   0  0  0  0  0  0  0  0  0  0  0  0
   -0.9576    1.5060   -0.3492 C   0  0  0  0  0  0  0  0  0  0  0  0
   -0.2419    0.9406   -1.5532 C   0  0  0  0  0  0  0  0  0  0  0  0
    0.5762   -0.2463   -1.2229 C   0  0  0  0  0  0  0  0  0  0  0  0
    1.9231    0.1125   -0.7393 C   0  0  0  0  0  0  0  0  0  0  0  0
    2.9987   -0.6918   -0.6054 N   0  0  0  0  0  0  0  0  0  0  0  0
    4.0411    0.0048   -0.1391 C   0  0  0  0  0  0  0  0  0  0  0  0
    5.3953   -0.5004    0.1342 C   0  0  0  0  0  0  0  0  0  0  0  0
    6.3921    0.3044    0.6182 C   0  0  0  0  0  0  0  0  0  0  0  0
    7.6454   -0.2221    0.8635 C   0  0  0  0  0  0  0  0  0  0  0  0
    7.9208   -1.5517    0.6290 C   0  0  0  0  0  0  0  0  0  0  0  0
    6.8909   -2.3383    0.1401 C   0  0  0  0  0  0  0  0  0  0  0  0
    5.6695   -1.7807   -0.0876 N   0  0  0  0  0  0  0  0  0  0  0  0
    3.5891    1.2603    0.0138 N   0  0  0  0  0  0  0  0  0  0  0  0
    2.3473    1.3106   -0.3410 O   0  0  0  0  0  0  0  0  0  0  0  0
   -0.0429   -1.2623   -0.3391 C   0  0  0  0  0  0  0  0  0  0  0  0
   -0.6744   -0.6398    0.8687 C   0  0  0  0  0  0  0  0  0  0  0  0
  1  2  2  0
  2  3  1  0
  4  3  1  6
  4  5  1  0
  5  6  1  0
  6  7  1  6
  7  8  2  0
  8  9  1  0
  9 10  2  0
  2 11  1  0
 11 12  1  0
 12 13  1  0
 13 14  1  0
 14 15  1  0
 15 16  2  0
 16 17  1  0
 17 18  1  0
 18 19  2  0
 19 20  1  0
 20 21  2  0
 21 22  1  0
 22 23  2  0
 17 24  2  0
 24 25  1  0
 14 26  1  0
 26 27  1  0
  6  4  1  0
  5 10  1  6
 27 11  1  0
 25 15  1  0
 23 18  1  0
M  END
>  <fragInfo>  (1) 
4 5 6 7 8 9 10
1 2 3
11 12 13 14 26 27
15 16 17 24 25
18 19 20 21 22 23


>  <torsionInfo>  (1) 
3 4 1 0
2 11 1 2
14 15 2 3
17 18 3 4


>  <atomInfo>  (1) 
1  -0.2486614OA
2  0.31715210C 
3  -0.3340224N 
4  0.04438115C 
5  0.00628538C 
6  0.00628538C 
7  -0.0786910C 
8  -0.0661999C 
9  -0.0661999C 
10 -0.0786910C 
11 -0.3247761N 
12 0.02298412C 
13 -0.0236190C 
14 0.04178170C 
15 0.22975667A 
16 -0.1895639NA
17 0.22050870A 
18 0.11113078A 
19 -0.0323542A 
20 -0.0584502A 
21 -0.0437662A 
22 0.02762940A 
23 -0.2527805NA
24 -0.0554006NA
25 -0.3386217OA
26 -0.0236190C 
27 0.02298412C 


$$$$
