
     RDKit          3D

 25 26  0  0  0  0  0  0  0  0999 V2000
   -4.2214    2.4246   -1.8067 C   0  0  0  0  0  0  0  0  0  0  0  0
   -4.1262    2.7442   -3.2803 C   0  0  2  0  0  0  0  0  0  0  0  0
   -4.7950    1.5971   -4.0192 C   0  0  0  0  0  0  0  0  0  0  0  0
   -2.7820    2.8634   -3.7586 N   0  0  0  0  0  0  0  0  0  0  0  0
   -1.9796    3.7791   -2.9752 C   0  0  0  0  0  0  0  0  0  0  0  0
   -1.8906    3.3540   -1.5364 C   0  0  2  0  0  0  0  0  0  0  0  0
   -0.5069    3.0668   -1.0719 C   0  0  0  0  0  0  0  0  0  0  0  0
   -0.1002    1.6235   -1.2332 C   0  0  0  0  0  0  0  0  0  0  0  0
   -0.4929    0.9141   -0.0464 N   0  0  0  0  0  0  0  0  0  0  0  0
    0.5233    0.1068    0.5287 C   0  0  0  0  0  0  0  0  0  0  0  0
    1.6524    0.0494    0.0108 O   0  0  0  0  0  0  0  0  0  0  0  0
    0.3012   -0.6634    1.7072 N   0  0  0  0  0  0  0  0  0  0  0  0
    1.3469   -1.4457    2.2314 C   0  0  0  0  0  0  0  0  0  0  0  0
    2.5491   -1.5327    1.7148 C   0  0  0  0  0  0  0  0  0  0  0  0
    3.5725   -2.3650    2.3194 C   0  0  0  0  0  0  0  0  0  0  0  0
    3.2489   -3.1254    3.5378 C   0  0  0  0  0  0  0  0  0  0  0  0
    4.7618   -2.4258    1.7732 C   0  0  0  0  0  0  0  0  0  0  0  0
    5.8504   -3.2171    2.2868 C   0  0  0  0  0  0  0  0  0  0  0  0
    5.6987   -3.9664    3.4000 F   0  0  0  0  0  0  0  0  0  0  0  0
    7.0210   -3.2233    1.6750 C   0  0  0  0  0  0  0  0  0  0  0  0
   -1.7775    0.9397    0.5978 C   0  0  0  0  0  0  0  0  0  0  0  0
   -2.8896    1.3547   -0.2719 C   0  0  0  0  0  0  0  0  0  0  0  0
   -4.1428    0.5498   -0.1561 C   0  0  0  0  0  0  0  0  0  0  0  0
   -3.9258   -0.8984   -0.4891 C   0  0  0  0  0  0  0  0  0  0  0  0
   -2.8958    2.3561   -1.1379 C   0  0  0  0  0  0  0  0  0  0  0  0
  1  2  1  0
  2  3  1  6
  2  4  1  0
  4  5  1  0
  6  5  1  6
  6  7  1  0
  7  8  1  0
  8  9  1  0
  9 10  1  0
 10 11  2  0
 10 12  1  0
 12 13  1  0
 13 14  2  3
 14 15  1  0
 15 16  1  0
 15 17  2  3
 17 18  1  0
 18 19  1  0
 18 20  2  0
  9 21  1  0
 21 22  1  0
 22 23  1  0
 23 24  1  0
  6 25  1  0
 25  1  1  0
 22 25  2  0
M  END
>  <fragInfo>  (1) 
1 2 3 4 5 6 7 8 9 21 22 25
10 11 12
13 14
15 16 17
18 19 20
23 24


>  <torsionInfo>  (1) 
9 10 0 1
22 23 0 5
12 13 1 2
14 15 2 3
17 18 3 4


>  <atomInfo>  (1) 
1  -0.0161363C 
2  0.00763234C 
3  -0.0494494C 
4  -0.3133413NA
5  0.00202386C 
6  -0.0056984C 
7  -0.0275311C 
8  0.02321972C 
9  -0.3205241N 
10 0.32115884C 
11 -0.2482768OA
12 -0.3144976N 
13 0.00578467C 
14 -0.0429449C 
15 -0.0468050C 
16 -0.0396154C 
17 -0.0239552C 
18 0.11581504C 
19 -0.2076586F 
20 -0.0630136C 
21 0.04359623C 
22 -0.0514832C 
23 -0.0328483C 
24 -0.0615410C 
25 -0.0632814C 


$$$$
