
     RDKit          3D

 30 33  0  0  0  0  0  0  0  0999 V2000
   -3.1795   -1.2848    1.1015 O   0  0  0  0  0  0  0  0  0  0  0  0
   -2.4967   -0.2560    1.0303 C   0  0  0  0  0  0  0  0  0  0  0  0
   -3.1143    1.0313    0.9632 N   0  0  0  0  0  0  0  0  0  0  0  0
   -4.5845    1.1122    0.9894 C   0  0  2  0  0  0  0  0  0  0  0  0
   -5.2575   -0.2659    1.3188 C   0  0  0  0  0  0  0  0  0  0  0  0
   -5.2101    0.2135   -0.0955 C   0  0  1  0  0  0  0  0  0  0  0  0
   -6.5212    0.7606   -0.5968 C   0  0  0  0  0  0  0  0  0  0  0  0
   -7.6385   -0.0012   -0.3695 C   0  0  0  0  0  0  0  0  0  0  0  0
   -8.8541    0.4423   -0.8010 C   0  0  0  0  0  0  0  0  0  0  0  0
   -8.9666    1.6425   -1.4559 C   0  0  0  0  0  0  0  0  0  0  0  0
   -7.8416    2.4078   -1.6809 C   0  0  0  0  0  0  0  0  0  0  0  0
   -6.6358    1.9570   -1.2496 C   0  0  0  0  0  0  0  0  0  0  0  0
   -1.0660   -0.4345    1.0170 N   0  0  0  0  0  0  0  0  0  0  0  0
   -0.5244   -1.8029    1.1142 C   0  0  0  0  0  0  0  0  0  0  0  0
    0.9853   -1.7363    1.0984 C   0  0  2  0  0  0  0  0  0  0  0  0
    1.4138   -1.1054   -0.1908 C   0  0  1  0  0  0  0  0  0  0  0  0
    2.7921   -0.5764   -0.2049 C   0  0  0  0  0  0  0  0  0  0  0  0
    3.1792    0.6724   -0.3293 N   0  0  0  0  0  0  0  0  0  0  0  0
    4.5337    0.7768   -0.3085 C   0  0  0  0  0  0  0  0  0  0  0  0
    5.3532    1.9602   -0.4054 C   0  0  0  0  0  0  0  0  0  0  0  0
    6.5621    2.1025   -0.4925 C   0  0  0  0  0  0  0  0  0  0  0  0
    7.8511    2.3831   -0.5907 C   0  0  0  0  0  0  0  0  0  0  0  0
    8.9411    1.5522   -0.6714 C   0  0  0  0  0  0  0  0  0  0  0  0
    8.5230    0.1295   -0.6467 C   0  0  0  0  0  0  0  0  0  0  0  0
    8.2085   -0.9627   -0.6187 N   0  0  0  0  0  0  0  0  0  0  0  0
    4.9659   -0.5000   -0.1573 N   0  0  0  0  0  0  0  0  0  0  0  0
    3.9094   -1.2949   -0.0991 O   0  0  0  0  0  0  0  0  0  0  0  0
    1.3105   -2.2848   -1.1648 C   0  0  0  0  0  0  0  0  0  0  0  0
    1.8869   -3.4710   -0.3685 C   0  0  0  0  0  0  0  0  0  0  0  0
    1.4752   -3.1670    1.0774 C   0  0  0  0  0  0  0  0  0  0  0  0
  1  2  2  0
  2  3  1  0
  4  3  1  6
  4  5  1  0
  5  6  1  0
  6  7  1  1
  7  8  2  0
  8  9  1  0
  9 10  2  0
 10 11  1  0
 11 12  2  0
  2 13  1  0
 13 14  1  0
 15 14  1  6
 15 16  1  0
 16 17  1  1
 17 18  2  0
 18 19  1  0
 19 20  1  0
 20 21  2  3
 21 22  1  0
 22 23  2  3
 23 24  1  0
 24 25  3  0
 19 26  2  0
 26 27  1  0
 16 28  1  0
 28 29  1  0
 29 30  1  0
  6  4  1  0
 12  7  1  0
 30 15  1  0
 27 17  1  0
M  END
>  <fragInfo>  (1) 
7 8 9 10 11 12
1 2 3 13
4 5 6
14
15 16 28 29 30
17 18 19 26 27
20 21
22 23 24 25


>  <torsionInfo>  (1) 
6 7 2 0
3 4 1 2
13 14 1 3
14 15 3 4
16 17 4 5
19 20 5 6
21 22 6 7


>  <atomInfo>  (1) 
1  -0.2488999OA
2  0.31453693C 
3  -0.3347946N 
4  0.03813201C 
5  -0.0232215C 
6  0.00622061C 
7  -0.0427878A 
8  -0.0586825A 
9  -0.0619824A 
10 -0.0622483A 
11 -0.0619824A 
12 -0.0586825A 
13 -0.3378544N 
14 0.02271311C 
15 -0.0121887C 
16 0.04291626C 
17 0.22990121A 
18 -0.1915919NA
19 0.19470165A 
20 -0.0137204C 
21 -0.0576810C 
22 -0.0516349C 
23 0.01569142C 
24 0.09115218C 
25 -0.1930989NA
26 -0.0577926NA
27 -0.3386934OA
28 -0.0412499C 
29 -0.0521796C 
30 -0.0479736C 


$$$$
