
     RDKit          3D

 11 11  0  0  0  0  0  0  0  0999 V2000
    3.7349   -0.2184    0.5593 O   0  0  0  0  0  0  0  0  0  0  0  0
    2.6426   -0.5888    1.0119 C   0  0  0  0  0  0  0  0  0  0  0  0
    1.3872   -0.1613    0.4873 N   0  0  0  0  0  0  0  0  0  0  0  0
    0.2339   -0.6852    1.1279 C   0  0  0  0  0  0  0  0  0  0  0  0
   -1.0631   -0.6175    0.7799 C   0  0  0  0  0  0  0  0  0  0  0  0
   -1.5751    0.0543   -0.4067 C   0  0  0  0  0  0  0  0  0  0  0  0
   -2.8644    0.3405   -0.4423 C   0  0  0  0  0  0  0  0  0  0  0  0
   -3.6020   -0.0174    0.6334 F   0  0  0  0  0  0  0  0  0  0  0  0
    1.5090    0.7320   -0.6065 C   0  0  0  0  0  0  0  0  0  0  0  0
    0.4267    0.7119   -1.5792 C   0  0  0  0  0  0  0  0  0  0  0  0
   -0.8297    0.4498   -1.5650 N   0  0  0  0  0  0  0  0  0  0  0  0
  1  2  2  0
  2  3  1  0
  3  4  1  0
  4  5  2  0
  5  6  1  0
  6  7  2  3
  7  8  1  0
  3  9  1  0
  9 10  1  0
 10 11  2  0
 11  6  1  0
M  END
>  <fragInfo>  (1) 
3 4 5 6 7 8 9 10 11
1 2


>  <torsionInfo>  (1) 
2 3 1 0


>  <atomInfo>  (1) 
1  -0.2783056OA
2  0.21350920C 
3  -0.3162066N 
4  0.00914456C 
5  -0.0176613C 
6  0.09228501C 
7  0.11233704C 
8  -0.2131721F 
9  0.06029919C 
10 0.02495225C 
11 -0.2568802NA


$$$$
