
     RDKit          3D

 30 34  0  0  0  0  0  0  0  0999 V2000
    2.1394    0.2396    0.1152 O   0  0  0  0  0  0  0  0  0  0  0  0
    1.3339   -0.0813    1.0160 C   0  0  0  0  0  0  0  0  0  0  0  0
    1.8565   -0.3322    2.3170 N   0  0  0  0  0  0  0  0  0  0  0  0
    3.2727   -0.2210    2.6140 C   0  0  2  0  0  0  0  0  0  0  0  0
    3.7077    1.2811    2.5569 C   0  0  0  0  0  0  0  0  0  0  0  0
    4.0895    0.3796    1.4387 C   0  0  1  0  0  0  0  0  0  0  0  0
    5.5008   -0.0451    1.3171 C   0  0  0  0  0  0  0  0  0  0  0  0
    6.3333    0.2284    2.3878 C   0  0  0  0  0  0  0  0  0  0  0  0
    7.6474   -0.1385    2.3415 C   0  0  0  0  0  0  0  0  0  0  0  0
    8.1840   -0.7859    1.2413 C   0  0  0  0  0  0  0  0  0  0  0  0
    7.3148   -1.0382    0.1958 C   0  0  0  0  0  0  0  0  0  0  0  0
    5.9847   -0.6852    0.2025 C   0  0  0  0  0  0  0  0  0  0  0  0
   -0.0163   -0.1692    0.6759 N   0  0  0  0  0  0  0  0  0  0  0  0
   -0.6825    0.0401   -0.5372 C   0  0  0  0  0  0  0  0  0  0  0  0
   -0.3662   -0.7839   -1.7174 C   0  0  1  0  0  0  0  0  0  0  0  0
   -1.2602   -0.3331   -2.8894 C   0  0  1  0  0  0  0  0  0  0  0  0
   -2.6199   -0.0372   -2.3475 C   0  0  0  0  0  0  0  0  0  0  0  0
   -3.1876   -0.5598   -1.2580 N   0  0  0  0  0  0  0  0  0  0  0  0
   -4.4099    0.0118   -1.1693 C   0  0  0  0  0  0  0  0  0  0  0  0
   -5.4121   -0.2255   -0.1491 C   0  0  0  0  0  0  0  0  0  0  0  0
   -6.6121    0.4264   -0.1568 C   0  0  0  0  0  0  0  0  0  0  0  0
   -7.5582    0.2165    0.8133 C   0  0  0  0  0  0  0  0  0  0  0  0
   -7.2840   -0.6782    1.8173 C   0  0  0  0  0  0  0  0  0  0  0  0
   -6.0599   -1.3144    1.7855 C   0  0  0  0  0  0  0  0  0  0  0  0
   -5.1307   -1.1093    0.8353 N   0  0  0  0  0  0  0  0  0  0  0  0
   -4.5376    0.8543   -2.2040 N   0  0  0  0  0  0  0  0  0  0  0  0
   -3.4512    0.7930   -2.8771 O   0  0  0  0  0  0  0  0  0  0  0  0
   -0.5878    0.9528   -3.3401 C   0  0  0  0  0  0  0  0  0  0  0  0
    0.8103    0.9346   -2.7731 C   0  0  0  0  0  0  0  0  0  0  0  0
    1.0013   -0.4928   -2.2521 C   0  0  0  0  0  0  0  0  0  0  0  0
  1  2  2  0
  2  3  1  0
  4  3  1  6
  4  5  1  0
  5  6  1  0
  6  7  1  1
  7  8  2  0
  8  9  1  0
  9 10  2  0
 10 11  1  0
 11 12  2  0
  2 13  1  0
 13 14  1  0
 15 14  1  1
 15 16  1  0
 16 17  1  1
 17 18  2  0
 18 19  1  0
 19 20  1  0
 20 21  2  0
 21 22  1  0
 22 23  2  0
 23 24  1  0
 24 25  2  0
 19 26  2  0
 26 27  1  0
 16 28  1  0
 28 29  1  0
 29 30  1  0
  6  4  1  0
 12  7  1  0
 30 15  1  0
 27 17  1  0
 25 20  1  0
M  END
>  <fragInfo>  (1) 
7 8 9 10 11 12
1 2 3 13
4 5 6
14
15 16 28 29 30
17 18 19 26 27
20 21 22 23 24 25


>  <torsionInfo>  (1) 
6 7 2 0
3 4 1 2
13 14 1 3
14 15 3 4
16 17 4 5
19 20 5 6


>  <atomInfo>  (1) 
1  -0.2488999OA
2  0.31453693C 
3  -0.3347946N 
4  0.03813201C 
5  -0.0232215C 
6  0.00622061C 
7  -0.0427878A 
8  -0.0586825A 
9  -0.0619824A 
10 -0.0622483A 
11 -0.0619824A 
12 -0.0586825A 
13 -0.3378544N 
14 0.02271311C 
15 -0.0121887C 
16 0.04291746C 
17 0.22996858A 
18 -0.1895556NA
19 0.22050884A 
20 0.11113079A 
21 -0.0323542A 
22 -0.0584502A 
23 -0.0437662A 
24 0.02762940A 
25 -0.2527805NA
26 -0.0554004NA
27 -0.3386112OA
28 -0.0412498C 
29 -0.0521796C 
30 -0.0479736C 


$$$$
