
     RDKit          3D

 25 26  0  0  0  0  0  0  0  0999 V2000
   -0.2701   -2.5800   -1.9189 O   0  0  0  0  0  0  0  0  0  0  0  0
   -0.3645   -2.1300   -0.7115 C   0  0  0  0  0  0  0  0  0  0  0  0
   -1.4526   -1.8471    0.0328 N   0  0  0  0  0  0  0  0  0  0  0  0
   -2.4384   -0.8496    0.1429 C   0  0  0  0  0  0  0  0  0  0  0  0
   -3.6203   -1.1410    0.8588 C   0  0  0  0  0  0  0  0  0  0  0  0
   -4.6455   -0.2612    1.0183 C   0  0  0  0  0  0  0  0  0  0  0  0
   -6.1010   -0.6602    1.9179 Cl  0  0  0  0  0  0  0  0  0  0  0  0
   -4.5772    0.9992    0.4698 C   0  0  0  0  0  0  0  0  0  0  0  0
   -3.4309    1.2955   -0.2297 C   0  0  0  0  0  0  0  0  0  0  0  0
   -3.3681    2.5592   -0.7921 F   0  0  0  0  0  0  0  0  0  0  0  0
   -2.3670    0.4098   -0.4052 C   0  0  0  0  0  0  0  0  0  0  0  0
    0.9586   -1.9276   -0.1409 N   0  0  0  0  0  0  0  0  0  0  0  0
    1.1782   -1.3841    1.1651 C   0  0  0  0  0  0  0  0  0  0  0  0
    2.4165   -0.5139    1.1568 C   0  0  0  0  0  0  0  0  0  0  0  0
    2.0054    0.9261    0.8638 C   0  0  1  0  0  0  0  0  0  0  0  0
    0.5234    0.9892    0.6069 C   0  0  0  0  0  0  0  0  0  0  0  0
    0.2168    0.6425   -0.8282 C   0  0  0  0  0  0  0  0  0  0  0  0
   -1.2000    0.8967   -1.1775 C   0  0  0  0  0  0  0  0  0  0  0  0
   -1.4526    1.5757   -2.2027 O   0  0  0  0  0  0  0  0  0  0  0  0
    2.3929    1.7631    2.0784 C   0  0  0  0  0  0  0  0  0  0  0  0
    2.7385    1.3624   -0.3675 C   0  0  0  0  0  0  0  0  0  0  0  0
    4.5191    1.2629   -0.0789 S   0  0  0  0  0  0  0  0  0  0  0  0
    4.9503   -0.4596    0.1289 C   0  0  0  0  0  0  0  0  0  0  0  0
    6.1114   -0.9698   -0.3149 C   0  0  0  0  0  0  0  0  0  0  0  0
    7.2773    0.0417   -1.1312 Cl  0  0  0  0  0  0  0  0  0  0  0  0
  1  2  2  0
  2  3  1  0
  3  4  1  0
  4  5  2  0
  5  6  1  0
  6  7  1  0
  6  8  2  0
  8  9  1  0
  9 10  1  0
  9 11  2  0
  2 12  1  0
 12 13  1  0
 13 14  1  0
 14 15  1  0
 15 16  1  0
 16 17  1  0
 17 18  1  0
 18 19  2  0
 15 20  1  1
 15 21  1  0
 21 22  1  0
 22 23  1  0
 23 24  2  3
 24 25  1  0
 11  4  1  0
 18 11  1  0
M  END
>  <fragInfo>  (1) 
1 2 3 4 5 6 7 8 9 10 11 12 13 14 15 16 17 18 19 20
21
22
23 24 25


>  <torsionInfo>  (1) 
15 21 0 1
21 22 1 2
22 23 2 3


>  <atomInfo>  (1) 
1  -0.2485080OA
2  0.31875919C 
3  -0.3071150N 
4  0.05763642A 
5  -0.0187957A 
6  0.04557694A 
7  -0.0841525Cl
8  -0.0066931A 
9  0.13709133A 
10 -0.2060668F 
11 0.07698102A 
12 -0.3378463N 
13 0.01967674C 
14 -0.0293821C 
15 -0.0210739C 
16 -0.0397004C 
17 0.01156050C 
18 0.16744610C 
19 -0.2939950OA
20 -0.0587616C 
21 0.00291904C 
22 -0.1326528SA
23 -0.0178564C 
24 0.01055147C 
25 -0.0923980Cl


$$$$
