
     RDKit          3D

 21 22  0  0  0  0  0  0  0  0999 V2000
    0.9477   -1.9074    2.2933 O   0  0  0  0  0  0  0  0  0  0  0  0
    0.3656   -0.8596    1.8911 C   0  0  0  0  0  0  0  0  0  0  0  0
   -0.9342   -0.9736    1.4064 N   0  0  0  0  0  0  0  0  0  0  0  0
   -1.6245   -0.1507    0.4850 C   0  0  0  0  0  0  0  0  0  0  0  0
   -2.8954    0.3004    0.8385 C   0  0  0  0  0  0  0  0  0  0  0  0
   -3.6628    1.0930    0.0474 C   0  0  0  0  0  0  0  0  0  0  0  0
   -5.2688    1.6473    0.5245 Cl  0  0  0  0  0  0  0  0  0  0  0  0
   -3.1930    1.4882   -1.1685 C   0  0  0  0  0  0  0  0  0  0  0  0
   -1.9267    1.0591   -1.5600 C   0  0  0  0  0  0  0  0  0  0  0  0
   -1.5163    1.4861   -2.7778 F   0  0  0  0  0  0  0  0  0  0  0  0
   -1.1429    0.2450   -0.7434 C   0  0  0  0  0  0  0  0  0  0  0  0
    1.0994    0.3526    1.9716 N   0  0  0  0  0  0  0  0  0  0  0  0
    1.0485    1.4156    0.9890 C   0  0  0  0  0  0  0  0  0  0  0  0
    2.2792    1.2133    0.0932 C   0  0  0  0  0  0  0  0  0  0  0  0
    2.8154   -0.1930    0.2333 C   0  0  1  0  0  0  0  0  0  0  0  0
    2.3895   -1.0676   -0.9251 C   0  0  0  0  0  0  0  0  0  0  0  0
    0.9089   -1.3535   -0.9021 C   0  0  0  0  0  0  0  0  0  0  0  0
    0.1591   -0.1281   -1.2813 C   0  0  0  0  0  0  0  0  0  0  0  0
    0.7525    0.6088   -2.1448 O   0  0  0  0  0  0  0  0  0  0  0  0
    4.3255   -0.1163    0.2834 C   0  0  0  0  0  0  0  0  0  0  0  0
    5.0734   -1.7075    0.4465 Cl  0  0  0  0  0  0  0  0  0  0  0  0
  1  2  2  0
  2  3  1  0
  3  4  1  0
  4  5  2  0
  5  6  1  0
  6  7  1  0
  6  8  2  0
  8  9  1  0
  9 10  1  0
  9 11  2  0
  2 12  1  0
 12 13  1  0
 13 14  1  0
 14 15  1  0
 15 16  1  0
 16 17  1  0
 17 18  1  0
 18 19  2  0
 15 20  1  6
 20 21  1  0
 11  4  1  0
 18 11  1  0
M  END
>  <fragInfo>  (1) 
1 2 3 4 5 6 7 8 9 10 11 12 13 14 15 16 17 18 19
20 21


>  <torsionInfo>  (1) 
15 20 0 1


>  <atomInfo>  (1) 
1  -0.2485080OA
2  0.31875903C 
3  -0.3071150N 
4  0.05763642A 
5  -0.0187957A 
6  0.04557694A 
7  -0.0841525Cl
8  -0.0066931A 
9  0.13709133A 
10 -0.2060668F 
11 0.07698083A 
12 -0.3378566N 
13 0.01943385C 
14 -0.0316261C 
15 -0.0256853C 
16 -0.0419490C 
17 0.01131844C 
18 0.16743591C 
19 -0.2939952OA
20 0.02520593C 
21 -0.1264134Cl


$$$$
