
     RDKit          3D

 25 27  0  0  0  0  0  0  0  0999 V2000
    0.4932   -1.2551    0.4516 O   0  0  0  0  0  0  0  0  0  0  0  0
    0.2241   -0.0134    0.4102 C   0  0  0  0  0  0  0  0  0  0  0  0
    1.3445    0.8617    0.2702 N   0  0  0  0  0  0  0  0  0  0  0  0
    2.6690    0.3640    0.1839 C   0  0  0  0  0  0  0  0  0  0  0  0
    2.9499   -0.9698    0.2291 C   0  0  0  0  0  0  0  0  0  0  0  0
    4.2430   -1.4067    0.1424 C   0  0  0  0  0  0  0  0  0  0  0  0
    4.6508   -3.1283    0.1969 Cl  0  0  0  0  0  0  0  0  0  0  0  0
    5.2637   -0.5155    0.0101 C   0  0  0  0  0  0  0  0  0  0  0  0
    4.9949    0.8439   -0.0375 C   0  0  0  0  0  0  0  0  0  0  0  0
    6.0318    1.6993   -0.1693 F   0  0  0  0  0  0  0  0  0  0  0  0
    3.6918    1.2762    0.0503 C   0  0  0  0  0  0  0  0  0  0  0  0
   -1.0953    0.4788    0.4963 N   0  0  0  0  0  0  0  0  0  0  0  0
   -1.1405    1.9102    0.4261 C   0  0  0  0  0  0  0  0  0  0  0  0
   -2.4747    2.4975    0.7759 C   0  0  0  0  0  0  0  0  0  0  0  0
   -3.2441    2.7124   -0.4948 C   0  0  1  0  0  0  0  0  0  0  0  0
   -3.4320    1.3960   -1.1711 C   0  0  0  0  0  0  0  0  0  0  0  0
   -4.1577    0.3765   -0.3640 C   0  0  0  0  0  0  0  0  0  0  0  0
   -3.4548   -0.0740    0.8668 C   0  0  0  0  0  0  0  0  0  0  0  0
   -2.0537   -0.5707    0.6316 C   0  0  2  0  0  0  0  0  0  0  0  0
   -1.6815   -1.3423    1.8226 N   0  0  0  0  0  0  0  0  0  0  0  0
   -1.8597   -2.7239    1.5333 C   0  0  0  0  0  0  0  0  0  0  0  0
   -2.0181   -2.9132    0.2510 C   0  0  0  0  0  0  0  0  0  0  0  0
   -1.9536   -1.6064   -0.4415 C   0  0  1  0  0  0  0  0  0  0  0  0
   -3.2802   -1.5436   -1.6070 Cl  0  0  0  0  0  0  0  0  0  0  0  0
   -4.7110    3.6465   -0.2951 Cl  0  0  0  0  0  0  0  0  0  0  0  0
  1  2  2  0
  2  3  1  0
  3  4  1  0
  4  5  2  0
  5  6  1  0
  6  7  1  0
  6  8  2  0
  8  9  1  0
  9 10  1  0
  9 11  2  0
  2 12  1  0
 12 13  1  0
 13 14  1  0
 14 15  1  0
 15 16  1  0
 16 17  1  0
 17 18  1  0
 19 18  1  1
 19 20  1  0
 20 21  1  0
 21 22  2  0
 22 23  1  0
 23 24  1  6
 15 25  1  1
 11  4  1  0
 19 12  1  0
 23 19  1  0
M  END
>  <fragInfo>  (1) 
12 13 14 15 16 17 18 19 20 21 22 23 24 25
1 2 3
4 5 6 7 8 9 10 11


>  <torsionInfo>  (1) 
2 12 1 0
3 4 1 2


>  <atomInfo>  (1) 
1  -0.2481898OA
2  0.32326879C 
3  -0.3076208N 
4  0.04677032A 
5  -0.0195456A 
6  0.04552740A 
7  -0.0841533Cl
8  -0.0074594A 
9  0.12626279A 
10 -0.2068729F 
11 -0.0024689A 
12 -0.2996248N 
13 0.02605245C 
14 -0.0187506C 
15 0.03524968C 
16 -0.0365142C 
17 -0.0477873C 
18 -0.0089836C 
19 0.13412806C 
20 -0.3674051N 
21 -0.0040656C 
22 -0.0466919C 
23 0.09508961C 
24 -0.1137323Cl
25 -0.1229375Cl


$$$$
