
     RDKit          3D

 23 25  0  0  0  0  0  0  0  0999 V2000
   -1.1278   -2.3657   -2.9822 O   0  0  0  0  0  0  0  0  0  0  0  0
   -0.9294   -1.6113   -2.0163 C   0  0  0  0  0  0  0  0  0  0  0  0
   -1.9724   -0.6558   -1.8730 N   0  0  0  0  0  0  0  0  0  0  0  0
   -2.3123    0.2900   -0.8483 C   0  0  0  0  0  0  0  0  0  0  0  0
   -3.5119    0.8433   -1.2339 C   0  0  0  0  0  0  0  0  0  0  0  0
   -4.1153    1.8000   -0.4527 C   0  0  0  0  0  0  0  0  0  0  0  0
   -5.6467    2.5194   -0.9260 Cl  0  0  0  0  0  0  0  0  0  0  0  0
   -3.4737    2.1707    0.7117 C   0  0  0  0  0  0  0  0  0  0  0  0
   -2.2653    1.6108    1.0964 C   0  0  0  0  0  0  0  0  0  0  0  0
   -1.6414    1.9828    2.2452 F   0  0  0  0  0  0  0  0  0  0  0  0
   -1.6924    0.6689    0.3064 C   0  0  0  0  0  0  0  0  0  0  0  0
    0.2617   -1.8406   -1.2655 N   0  0  0  0  0  0  0  0  0  0  0  0
    0.6669   -1.8354    0.1257 C   0  0  1  0  0  0  0  0  0  0  0  0
    2.1430   -2.2718    0.1014 C   0  0  0  0  0  0  0  0  0  0  0  0
    2.9405   -0.9855    0.1072 C   0  0  1  0  0  0  0  0  0  0  0  0
    1.9062    0.1503    0.0777 C   0  0  0  0  0  0  0  0  0  0  0  0
    0.7588   -0.5067    0.7469 C   0  0  1  0  0  0  0  0  0  0  0  0
   -0.4300    0.2587    0.9594 C   0  0  0  0  0  0  0  0  0  0  0  0
   -0.4317    0.7930    2.1234 O   0  0  0  0  0  0  0  0  0  0  0  0
    3.6607   -0.8421    1.4026 C   0  0  0  0  0  0  0  0  0  0  0  0
    4.9625   -0.6403    1.4291 C   0  0  0  0  0  0  0  0  0  0  0  0
    5.7208   -0.5545    0.1594 C   0  0  0  0  0  0  0  0  0  0  0  0
    6.5291    1.0219    0.0054 Cl  0  0  0  0  0  0  0  0  0  0  0  0
  1  2  2  0
  2  3  1  0
  3  4  1  0
  4  5  2  0
  5  6  1  0
  6  7  1  0
  6  8  2  0
  8  9  1  0
  9 10  1  0
  9 11  2  0
  2 12  1  0
 12 13  1  0
 13 14  1  6
 15 14  1  1
 15 16  1  0
 17 16  1  6
 17 18  1  0
 18 19  2  0
 15 20  1  0
 20 21  2  3
 21 22  1  0
 22 23  1  0
 11  4  1  0
 18 11  1  0
 17 13  1  0
M  END
>  <fragInfo>  (1) 
1 2 3 4 5 6 7 8 9 10 11 12 13 14 15 16 17 18 19
20 21
22 23


>  <torsionInfo>  (1) 
15 20 0 1
21 22 1 2


>  <atomInfo>  (1) 
1  -0.2484985OA
2  0.31899822C 
3  -0.3071076N 
4  0.05764969A 
5  -0.0187955A 
6  0.04557694A 
7  -0.0841525Cl
8  -0.0066929A 
9  0.13710445A 
10 -0.2060665F 
11 0.07736487A 
12 -0.3343742N 
13 0.04122417C 
14 -0.0256387C 
15 -0.0205575C 
16 -0.0347244C 
17 0.04345564C 
18 0.17256525C 
19 -0.2935903OA
20 -0.0841329C 
21 -0.0735439C 
22 0.04037689C 
23 -0.1222090Cl


$$$$
