
     RDKit          3D

 11 11  0  0  0  0  0  0  0  0999 V2000
   -3.6897    0.1413    0.3781 O   0  0  0  0  0  0  0  0  0  0  0  0
   -2.6802    0.7827    0.7119 C   0  0  0  0  0  0  0  0  0  0  0  0
   -1.3898    0.4504    0.2090 N   0  0  0  0  0  0  0  0  0  0  0  0
   -0.3610    1.2978    0.7054 C   0  0  0  0  0  0  0  0  0  0  0  0
    0.9449    0.9620    0.7494 C   0  0  0  0  0  0  0  0  0  0  0  0
    1.5506   -0.2930    0.3137 C   0  0  0  0  0  0  0  0  0  0  0  0
    2.8551   -0.2957    0.2027 C   0  0  0  0  0  0  0  0  0  0  0  0
    3.6118    0.7824    0.4693 F   0  0  0  0  0  0  0  0  0  0  0  0
   -1.3664   -0.6630   -0.6989 C   0  0  0  0  0  0  0  0  0  0  0  0
   -0.3374   -1.6785   -0.4114 C   0  0  0  0  0  0  0  0  0  0  0  0
    0.8620   -1.4865    0.0072 N   0  0  0  0  0  0  0  0  0  0  0  0
  1  2  2  0
  2  3  1  0
  3  4  1  0
  4  5  2  0
  5  6  1  0
  6  7  2  3
  7  8  1  0
  3  9  1  0
  9 10  1  0
 10 11  2  0
 11  6  1  0
M  END
>  <fragInfo>  (1) 
3 4 5 6 7 8 9 10 11
1 2


>  <torsionInfo>  (1) 
2 3 1 0


>  <atomInfo>  (1) 
1  -0.2783056OA
2  0.21350920C 
3  -0.3162066N 
4  0.00914456C 
5  -0.0176613C 
6  0.09228501C 
7  0.11233704C 
8  -0.2131721F 
9  0.06029919C 
10 0.02495225C 
11 -0.2568802NA


$$$$
