
     RDKit          3D

 20 22  0  0  0  0  0  0  0  0999 V2000
   -0.6269   -3.7359    1.1801 O   0  0  0  0  0  0  0  0  0  0  0  0
   -0.5360   -2.5184    0.8035 C   0  0  0  0  0  0  0  0  0  0  0  0
    0.8187   -2.0815    0.6910 N   0  0  0  0  0  0  0  0  0  0  0  0
    1.4639   -0.8529    0.3475 C   0  0  0  0  0  0  0  0  0  0  0  0
    2.8264   -1.0684    0.5545 C   0  0  0  0  0  0  0  0  0  0  0  0
    3.7067   -0.0344    0.2989 C   0  0  0  0  0  0  0  0  0  0  0  0
    5.4107   -0.2974    0.5556 Cl  0  0  0  0  0  0  0  0  0  0  0  0
    3.2446    1.1997   -0.1566 C   0  0  0  0  0  0  0  0  0  0  0  0
    1.8799    1.3795   -0.3520 C   0  0  0  0  0  0  0  0  0  0  0  0
    1.2164    2.8979   -0.9219 Cl  0  0  0  0  0  0  0  0  0  0  0  0
    0.9867    0.3588   -0.1021 C   0  0  0  0  0  0  0  0  0  0  0  0
   -1.8011   -1.9001    0.5898 N   0  0  0  0  0  0  0  0  0  0  0  0
   -2.2690   -0.7480   -0.1374 C   0  0  0  0  0  0  0  0  0  0  0  0
   -3.7003   -0.8159   -0.5217 C   0  0  0  0  0  0  0  0  0  0  0  0
   -4.3195    0.3349    0.2597 C   0  0  0  0  0  0  0  0  0  0  0  0
   -2.8186    1.3878   -1.3922 S   0  0  2  0  0  0  0  0  0  0  0  0
   -1.7039    0.3566   -0.5377 C   0  0  0  0  0  0  0  0  0  0  0  0
   -0.3314    0.8933   -0.4106 C   0  0  0  0  0  0  0  0  0  0  0  0
   -0.3379    2.1455   -0.6340 O   0  0  0  0  0  0  0  0  0  0  0  0
   -3.1095    3.0989   -0.1142 Cl  0  0  0  0  0  0  0  0  0  0  0  0
  1  2  2  0
  2  3  1  0
  3  4  1  0
  4  5  2  0
  5  6  1  0
  6  7  1  0
  6  8  2  0
  8  9  1  0
  9 10  1  0
  9 11  2  0
  2 12  1  0
 12 13  1  0
 13 14  1  0
 14 15  1  0
 15 16  1  0
 16 17  1  0
 17 18  1  0
 18 19  2  0
 16 20  1  1
 11  4  1  0
 18 11  1  0
 13 17  2  0
M  END
>  <fragInfo>  (1) 
1 2 3 4 5 6 7 8 9 10 11 12 13 14 15 16 17 18 19 20


>  <torsionInfo>  (1) 


>  <atomInfo>  (1) 
1  -0.2481159OA
2  0.32298351C 
3  -0.3068642N 
4  0.05658699A 
5  -0.0188890A 
6  0.04414796A 
7  -0.0842072Cl
8  -0.0238886A 
9  0.05534559A 
10 -0.0833986Cl
11 0.06546545A 
12 -0.3102299N 
13 0.03718888C 
14 -0.0024162C 
15 -0.0028594C 
16 -0.1421158S 
17 0.06825927C 
18 0.20354015C 
19 -0.2878396OA
20 -0.0642384Cl


$$$$
