
     RDKit          3D

 20 22  0  0  0  0  0  0  0  0999 V2000
    0.7154    3.4523    1.4876 O   0  0  0  0  0  0  0  0  0  0  0  0
    0.6055    2.2989    0.9769 C   0  0  0  0  0  0  0  0  0  0  0  0
   -0.6855    1.7044    1.1942 N   0  0  0  0  0  0  0  0  0  0  0  0
   -1.4321    0.6999    0.5077 C   0  0  0  0  0  0  0  0  0  0  0  0
   -2.7669    0.9939    0.7175 C   0  0  0  0  0  0  0  0  0  0  0  0
   -3.7451    0.1870    0.1682 C   0  0  0  0  0  0  0  0  0  0  0  0
   -5.4512    0.5213    0.4079 Cl  0  0  0  0  0  0  0  0  0  0  0  0
   -3.3316   -0.8981   -0.5805 C   0  0  0  0  0  0  0  0  0  0  0  0
   -1.9857   -1.1880   -0.7876 C   0  0  0  0  0  0  0  0  0  0  0  0
   -1.5714   -2.2468   -1.5182 F   0  0  0  0  0  0  0  0  0  0  0  0
   -1.0142   -0.3799   -0.2374 C   0  0  0  0  0  0  0  0  0  0  0  0
    1.7667    1.8301    0.3000 N   0  0  0  0  0  0  0  0  0  0  0  0
    2.2749    0.5350   -0.1251 C   0  0  0  0  0  0  0  0  0  0  0  0
    3.7394    0.3823   -0.1692 C   0  0  0  0  0  0  0  0  0  0  0  0
    3.9513   -1.1127   -0.1931 C   0  0  2  0  0  0  0  0  0  0  0  0
    2.6773   -1.6285   -0.8384 C   0  0  0  0  0  0  0  0  0  0  0  0
    1.6963   -0.5764   -0.4984 C   0  0  0  0  0  0  0  0  0  0  0  0
    0.2710   -0.9432   -0.6322 C   0  0  0  0  0  0  0  0  0  0  0  0
    0.1689   -2.0368   -1.2572 O   0  0  0  0  0  0  0  0  0  0  0  0
    4.1170   -1.5946    1.0774 F   0  0  0  0  0  0  0  0  0  0  0  0
  1  2  2  0
  2  3  1  0
  3  4  1  0
  4  5  2  0
  5  6  1  0
  6  7  1  0
  6  8  2  0
  8  9  1  0
  9 10  1  0
  9 11  2  0
  2 12  1  0
 12 13  1  0
 13 14  1  0
 14 15  1  0
 15 16  1  0
 16 17  1  0
 17 18  1  0
 18 19  2  0
 15 20  1  1
 11  4  1  0
 18 11  1  0
 13 17  2  0
M  END
>  <fragInfo>  (1) 
1 2 3 4 5 6 7 8 9 10 11 12 13 14 15 16 17 18 19 20


>  <torsionInfo>  (1) 


>  <atomInfo>  (1) 
1  -0.2481164OA
2  0.32295800C 
3  -0.3068110N 
4  0.05801622A 
5  -0.0187823A 
6  0.04557738A 
7  -0.0841525Cl
8  -0.0066796A 
9  0.13745826A 
10 -0.2060529F 
11 0.08168598A 
12 -0.3109789N 
13 0.02961435C 
14 0.01976403C 
15 0.10978494C 
16 0.00967198C 
17 0.02269426C 
18 0.19541247C 
19 -0.2887042OA
20 -0.2466980F 


$$$$
