
     RDKit          3D

 29 32  0  0  0  0  0  0  0  0999 V2000
    1.4041    0.8085    0.4226 O   0  0  0  0  0  0  0  0  0  0  0  0
    1.9101    1.6598   -0.3347 C   0  0  0  0  0  0  0  0  0  0  0  0
    3.2321    1.2870   -0.8238 N   0  0  0  0  0  0  0  0  0  0  0  0
    3.8337    0.0551   -0.4370 C   0  0  2  0  0  0  0  0  0  0  0  0
    3.2443   -0.9255    0.4733 C   0  0  0  0  0  0  0  0  0  0  0  0
    4.3667   -0.1309    0.9714 C   0  0  1  0  0  0  0  0  0  0  0  0
    5.7580   -0.5872    1.0198 C   0  0  0  0  0  0  0  0  0  0  0  0
    6.1833   -1.5168    1.9429 C   0  0  0  0  0  0  0  0  0  0  0  0
    7.5000   -1.9190    1.9545 C   0  0  0  0  0  0  0  0  0  0  0  0
    8.3982   -1.3977    1.0476 C   0  0  0  0  0  0  0  0  0  0  0  0
    7.9947   -0.4742    0.1239 C   0  0  0  0  0  0  0  0  0  0  0  0
    6.6752   -0.0765    0.1185 C   0  0  0  0  0  0  0  0  0  0  0  0
    1.3230    2.8642   -0.7132 N   0  0  0  0  0  0  0  0  0  0  0  0
    0.0847    3.3888   -0.3599 C   0  0  0  0  0  0  0  0  0  0  0  0
   -1.0755    2.5610   -0.7578 C   0  0  0  0  0  0  0  0  0  0  0  0
   -1.1651    1.2158   -0.0775 C   0  0  2  0  0  0  0  0  0  0  0  0
   -2.3954    0.5566   -0.6870 C   0  0  0  0  0  0  0  0  0  0  0  0
   -3.4385    0.0004   -0.0513 N   0  0  0  0  0  0  0  0  0  0  0  0
   -4.3233   -0.4748   -0.9444 C   0  0  0  0  0  0  0  0  0  0  0  0
   -5.5825   -1.1460   -0.6511 C   0  0  0  0  0  0  0  0  0  0  0  0
   -6.4160   -1.5955   -1.6522 C   0  0  0  0  0  0  0  0  0  0  0  0
   -7.6252   -2.2408   -1.3758 C   0  0  0  0  0  0  0  0  0  0  0  0
   -8.0000   -2.4361   -0.0634 C   0  0  0  0  0  0  0  0  0  0  0  0
   -7.1400   -1.9726    0.9138 C   0  0  0  0  0  0  0  0  0  0  0  0
   -5.9836   -1.3556    0.6137 N   0  0  0  0  0  0  0  0  0  0  0  0
   -3.7888   -0.1920   -2.1441 N   0  0  0  0  0  0  0  0  0  0  0  0
   -2.6398    0.4227   -1.9675 O   0  0  0  0  0  0  0  0  0  0  0  0
   -1.6372    1.5610    1.3635 C   0  0  0  0  0  0  0  0  0  0  0  0
   -0.6973    2.4692    2.0754 C   0  0  0  0  0  0  0  0  0  0  0  0
  1  2  2  0
  2  3  1  0
  4  3  1  1
  4  5  1  0
  5  6  1  0
  6  7  1  6
  7  8  2  0
  8  9  1  0
  9 10  2  0
 10 11  1  0
 11 12  2  0
  2 13  1  0
 13 14  1  0
 14 15  1  0
 16 15  1  6
 16 17  1  0
 17 18  2  0
 18 19  1  0
 19 20  1  0
 20 21  2  0
 21 22  1  0
 22 23  2  0
 23 24  1  0
 24 25  2  0
 19 26  2  0
 26 27  1  0
 16 28  1  0
 28 29  1  0
  6  4  1  0
 12  7  1  0
 27 17  1  0
 25 20  1  0
M  END
>  <fragInfo>  (1) 
7 8 9 10 11 12
1 2 3 13
4 5 6
14
15
16
17 18 19 26 27
20 21 22 23 24 25
28 29


>  <torsionInfo>  (1) 
6 7 2 0
3 4 1 2
13 14 1 3
14 15 3 4
15 16 4 5
16 17 5 6
16 28 5 8
19 20 6 7


>  <atomInfo>  (1) 
1  -0.2489000OA
2  0.31452722C 
3  -0.3347948N 
4  0.03813201C 
5  -0.0232215C 
6  0.00622061C 
7  -0.0427878A 
8  -0.0586825A 
9  -0.0619824A 
10 -0.0622483A 
11 -0.0619824A 
12 -0.0586825A 
13 -0.3381333N 
14 0.01987733C 
15 -0.0239514C 
16 0.03983313C 
17 0.22967717A 
18 -0.1895651NA
19 0.22050869A 
20 0.11113078A 
21 -0.0323542A 
22 -0.0584502A 
23 -0.0437662A 
24 0.02762940A 
25 -0.2527805NA
26 -0.0554006NA
27 -0.3386232OA
28 -0.0443961C 
29 -0.0646199C 


$$$$
