
     RDKit          3D

 11 11  0  0  0  0  0  0  0  0999 V2000
    3.7167   -0.2525    0.2513 O   0  0  0  0  0  0  0  0  0  0  0  0
    2.8606    0.6316    0.0117 C   0  0  0  0  0  0  0  0  0  0  0  0
    1.4999    0.3129   -0.2613 N   0  0  0  0  0  0  0  0  0  0  0  0
    0.6012    1.3745   -0.5212 C   0  0  0  0  0  0  0  0  0  0  0  0
   -0.7399    1.4221   -0.4333 C   0  0  0  0  0  0  0  0  0  0  0  0
   -1.5598    0.2780   -0.0165 C   0  0  0  0  0  0  0  0  0  0  0  0
   -2.8482    0.3371   -0.3602 C   0  0  0  0  0  0  0  0  0  0  0  0
   -3.6564   -0.6712   -0.0136 F   0  0  0  0  0  0  0  0  0  0  0  0
    1.2258   -1.1126   -0.2316 C   0  0  0  0  0  0  0  0  0  0  0  0
    0.0325   -1.4320    0.5943 C   0  0  0  0  0  0  0  0  0  0  0  0
   -1.1324   -0.8879    0.7142 N   0  0  0  0  0  0  0  0  0  0  0  0
  1  2  2  0
  2  3  1  0
  3  4  1  0
  4  5  2  0
  5  6  1  0
  6  7  2  3
  7  8  1  0
  3  9  1  0
  9 10  1  0
 10 11  2  0
 11  6  1  0
M  END
>  <fragInfo>  (1) 
3 4 5 6 7 8 9 10 11
1 2


>  <torsionInfo>  (1) 
2 3 1 0


>  <atomInfo>  (1) 
1  -0.2783056OA
2  0.21350920C 
3  -0.3162066N 
4  0.00914456C 
5  -0.0176613C 
6  0.09228501C 
7  0.11233704C 
8  -0.2131721F 
9  0.06029919C 
10 0.02495225C 
11 -0.2568802NA


$$$$
