
     RDKit          3D

 20 22  0  0  0  0  0  0  0  0999 V2000
   -0.6957    3.7142   -0.4764 O   0  0  0  0  0  0  0  0  0  0  0  0
   -0.6055    2.4728   -0.3110 C   0  0  0  0  0  0  0  0  0  0  0  0
    0.6507    2.1210    0.2707 N   0  0  0  0  0  0  0  0  0  0  0  0
    1.3965    0.8998    0.1981 C   0  0  0  0  0  0  0  0  0  0  0  0
    2.7409    1.2755    0.2815 C   0  0  0  0  0  0  0  0  0  0  0  0
    3.7008    0.2869    0.2367 C   0  0  0  0  0  0  0  0  0  0  0  0
    5.4090    0.6331    0.3318 Cl  0  0  0  0  0  0  0  0  0  0  0  0
    3.3210   -1.0277    0.1128 C   0  0  0  0  0  0  0  0  0  0  0  0
    2.0006   -1.3833    0.0320 C   0  0  0  0  0  0  0  0  0  0  0  0
    1.5797   -2.8050   -0.1024 C   0  0  0  0  0  0  0  0  0  0  0  0
    1.0296   -0.4229    0.0740 C   0  0  0  0  0  0  0  0  0  0  0  0
   -1.7619    1.7550   -0.7406 N   0  0  0  0  0  0  0  0  0  0  0  0
   -2.3158    0.4466   -0.4558 C   0  0  0  0  0  0  0  0  0  0  0  0
   -3.7605    0.3285   -0.4621 C   0  0  0  0  0  0  0  0  0  0  0  0
   -4.2187   -1.0140   -0.8906 C   0  0  0  0  0  0  0  0  0  0  0  0
   -2.8787   -1.9634    0.0819 S   0  0  1  0  0  0  0  0  0  0  0  0
   -1.6524   -0.6582   -0.1778 C   0  0  0  0  0  0  0  0  0  0  0  0
   -0.2611   -1.0868   -0.0311 C   0  0  0  0  0  0  0  0  0  0  0  0
   -0.1296   -2.3236    0.0176 O   0  0  0  0  0  0  0  0  0  0  0  0
   -3.5489   -1.2483    2.0104 F   0  0  0  0  0  0  0  0  0  0  0  0
  1  2  2  0
  2  3  1  0
  3  4  1  0
  4  5  2  0
  5  6  1  0
  6  7  1  0
  6  8  2  0
  8  9  1  0
  9 10  1  0
  9 11  2  0
  2 12  1  0
 12 13  1  0
 13 14  1  0
 14 15  1  0
 15 16  1  0
 16 17  1  0
 17 18  1  0
 18 19  2  0
 16 20  1  1
 11  4  1  0
 18 11  1  0
 13 17  2  0
M  END
>  <fragInfo>  (1) 
1 2 3 4 5 6 7 8 9 10 11 12 13 14 15 16 17 18 19 20


>  <torsionInfo>  (1) 


>  <atomInfo>  (1) 
1  -0.2481159OA
2  0.32298354C 
3  -0.3069091N 
4  0.05534118A 
5  -0.0189778A 
6  0.04292955A 
7  -0.0842524Cl
8  -0.0396954A 
9  -0.0363284A 
10 -0.0389045C 
11 0.04980944A 
12 -0.3101832N 
13 0.03846685C 
14 -0.0011618C 
15 0.01088754C 
16 -0.0704758S 
17 0.08222217C 
18 0.20352661C 
19 -0.2878380OA
20 -0.1874440F 


$$$$
