
     RDKit          3D

 21 23  0  0  0  0  0  0  0  0999 V2000
   -2.8018    0.2694    2.4494 C   0  0  0  0  0  0  0  0  0  0  0  0
   -3.5454    0.4362    1.2027 N   0  0  0  0  0  0  0  0  0  0  0  0
   -3.0172   -0.4883    0.2352 C   0  0  0  0  0  0  0  0  0  0  0  0
   -1.7632   -1.1891    0.7230 C   0  0  0  0  0  0  0  0  0  0  0  0
   -0.6287   -0.7661   -0.0888 N   0  0  0  0  0  0  0  0  0  0  0  0
   -0.6863    0.5231   -0.6720 C   0  0  0  0  0  0  0  0  0  0  0  0
   -1.9048    1.0574   -1.0660 C   0  0  0  0  0  0  0  0  0  0  0  0
   -2.0620    2.3006   -1.6336 C   0  0  0  0  0  0  0  0  0  0  0  0
   -0.9655    3.1381   -1.6411 C   0  0  0  0  0  0  0  0  0  0  0  0
    0.2601    2.6852   -1.1893 C   0  0  0  0  0  0  0  0  0  0  0  0
    0.4040    1.3672   -0.7721 C   0  0  0  0  0  0  0  0  0  0  0  0
    1.7503    0.9841   -0.2828 C   0  0  0  0  0  0  0  0  0  0  0  0
    1.9606    1.3926    1.1862 C   0  0  0  0  0  0  0  0  0  0  0  0
    3.3324    0.9331    1.5083 C   0  0  0  0  0  0  0  0  0  0  0  0
    3.8428   -0.2071    1.0410 C   0  0  0  0  0  0  0  0  0  0  0  0
    3.1023   -1.5318    1.1352 N   0  0  0  0  0  0  0  0  0  0  0  0
    1.7264   -1.7493    0.4934 C   0  0  0  0  0  0  0  0  0  0  0  0
    1.1295   -1.8524    0.2195 C   0  0  0  0  0  0  0  0  0  0  0  0
    0.3093   -1.9989   -0.1612 C   0  0  0  0  0  0  0  0  0  0  0  0
   -0.2214   -2.6521   -1.3433 C   0  0  0  0  0  0  0  0  0  0  0  0
   -0.2214   -2.6521   -1.3433 C   0  0  0  0  0  0  0  0  0  0  0  0
  1  2  1  0
  2  3  1  0
  3  4  1  0
  4  5  1  0
  5  6  1  0
  6  7  2  0
  7  8  1  0
  8  9  2  0
  9 10  1  0
 10 11  2  0
 11 12  1  0
 12 13  1  0
 13 14  1  0
 14 15  2  3
 15 16  1  0
 16 17  1  0
 17 18  3  0
 18 19  1  0
 19 20  1  0
 20 21  3  0
 19  5  1  0
 11  6  1  0
 21 19  1  0
M  END
>  <fragInfo>  (1) 
5 6 7 8 9 10 11 12 13 14 15 16 17 18 19 20 21
1 2
3
4


>  <torsionInfo>  (1) 
4 5 3 0
2 3 1 2
3 4 2 3


>  <atomInfo>  (1) 
1  -0.0163696C 
2  -0.3179910NA
3  0.01259200C 
4  0.03365039C 
5  -0.3334626N 
6  0.04260152A 
7  -0.0383738A 
8  -0.0601856A 
9  -0.0618426A 
10 -0.0569648A 
11 -0.0241980A 
12 -0.0222959C 
13 -0.0291691C 
14 -0.0674448C 
15 0.00527083C 
16 -0.3220592N 
17 0.01335417C 
18 -0.0245673C 
19 0.22802890C 
20 -0.0432800C 
21 -0.0432800C 


$$$$
