
     RDKit          3D

 25 27  0  0  0  0  0  0  0  0999 V2000
   -0.7320   -1.5108   -0.0351 O   0  0  0  0  0  0  0  0  0  0  0  0
   -0.4443   -0.3049    0.1186 C   0  0  0  0  0  0  0  0  0  0  0  0
   -1.4711    0.6058    0.4586 N   0  0  0  0  0  0  0  0  0  0  0  0
   -2.7976    0.1487    0.6195 C   0  0  0  0  0  0  0  0  0  0  0  0
   -3.0976   -1.1834    0.4466 C   0  0  0  0  0  0  0  0  0  0  0  0
   -4.4062   -1.6416    0.6040 C   0  0  0  0  0  0  0  0  0  0  0  0
   -4.8368   -3.3182    0.3960 Cl  0  0  0  0  0  0  0  0  0  0  0  0
   -5.4078   -0.7549    0.9352 C   0  0  0  0  0  0  0  0  0  0  0  0
   -5.1147    0.5860    1.1108 C   0  0  0  0  0  0  0  0  0  0  0  0
   -6.0587    1.4957    1.4355 F   0  0  0  0  0  0  0  0  0  0  0  0
   -3.7995    1.0195    0.9480 C   0  0  0  0  0  0  0  0  0  0  0  0
    0.8864    0.2046   -0.0342 N   0  0  0  0  0  0  0  0  0  0  0  0
    1.3345    1.5359    0.1120 C   0  0  0  0  0  0  0  0  0  0  0  0
    0.8111    2.9152    0.4390 C   0  0  0  0  0  0  0  0  0  0  0  0
    1.8402    3.7766   -0.3076 C   0  0  1  0  0  0  0  0  0  0  0  0
    3.1025    3.0195    0.0468 C   0  0  0  0  0  0  0  0  0  0  0  0
    2.6240    1.5965   -0.1098 C   0  0  0  0  0  0  0  0  0  0  0  0
    3.1862    0.2827   -0.4353 C   0  0  0  0  0  0  0  0  0  0  0  0
    2.0175   -0.6225   -0.3786 C   0  0  0  0  0  0  0  0  0  0  0  0
    1.9520   -1.9228   -0.5879 C   0  0  0  0  0  0  0  0  0  0  0  0
    2.9208   -2.8612   -0.9221 C   0  0  0  0  0  0  0  0  0  0  0  0
    4.1498   -2.8283   -1.1380 N   0  0  0  0  0  0  0  0  0  0  0  0
    5.0627   -1.7217   -1.1144 C   0  0  0  0  0  0  0  0  0  0  0  0
    6.6276   -2.1327   -1.9276 S   0  0  0  0  0  0  0  0  0  0  0  0
    1.6511    3.6164   -1.6705 F   0  0  0  0  0  0  0  0  0  0  0  0
  1  2  2  0
  2  3  1  0
  3  4  1  0
  4  5  2  0
  5  6  1  0
  6  7  1  0
  6  8  2  0
  8  9  1  0
  9 10  1  0
  9 11  2  0
  2 12  1  0
 12 13  1  0
 13 14  1  0
 14 15  1  0
 15 16  1  0
 16 17  1  0
 17 18  1  0
 18 19  1  0
 19 20  2  3
 20 21  1  0
 21 22  2  3
 22 23  1  0
 23 24  1  0
 15 25  1  6
 11  4  1  0
 19 12  1  0
 13 17  2  0
M  END
>  <fragInfo>  (1) 
12 13 14 15 16 17 18 19 20 25
1 2 3
4 5 6 7 8 9 10 11
21 22
23 24


>  <torsionInfo>  (1) 
2 12 1 0
20 21 0 3
3 4 1 2
22 23 3 4


>  <atomInfo>  (1) 
1  -0.2474742OA
2  0.32993427C 
3  -0.3070909N 
4  0.04679333A 
5  -0.0195452A 
6  0.04552740A 
7  -0.0841533Cl
8  -0.0074594A 
9  0.12626280A 
10 -0.2068729F 
11 -0.0024685A 
12 -0.2699378N 
13 0.03008016C 
14 0.01988657C 
15 0.10934816C 
16 0.00234573C 
17 -0.0412727C 
18 0.01146206C 
19 0.03310110C 
20 -0.0238125C 
21 0.02396273C 
22 -0.2826072NA
23 0.08143669C 
24 -0.1558249SA
25 -0.2467131F 


$$$$
