
     RDKit          3D

 21 23  0  0  0  0  0  0  0  0999 V2000
   -0.3983    4.0279   -0.6017 O   0  0  0  0  0  0  0  0  0  0  0  0
   -0.1397    2.8397   -0.3389 C   0  0  0  0  0  0  0  0  0  0  0  0
   -1.3047    2.0119   -0.3166 N   0  0  0  0  0  0  0  0  0  0  0  0
   -1.5825    0.6208   -0.1521 C   0  0  0  0  0  0  0  0  0  0  0  0
   -2.8542    0.5297    0.3924 C   0  0  0  0  0  0  0  0  0  0  0  0
   -3.3723   -0.7224    0.6546 C   0  0  0  0  0  0  0  0  0  0  0  0
   -4.9664   -0.9496    1.3408 Cl  0  0  0  0  0  0  0  0  0  0  0  0
   -2.6198   -1.8441    0.3715 C   0  0  0  0  0  0  0  0  0  0  0  0
   -1.3594   -1.7203   -0.1692 C   0  0  0  0  0  0  0  0  0  0  0  0
   -0.6538   -2.8493   -0.4321 F   0  0  0  0  0  0  0  0  0  0  0  0
   -0.8104   -0.4821   -0.4441 C   0  0  0  0  0  0  0  0  0  0  0  0
    1.2466    2.5481   -0.1163 N   0  0  0  0  0  0  0  0  0  0  0  0
    2.0044    1.3255   -0.0141 C   0  0  1  0  0  0  0  0  0  0  0  0
    2.0677    0.7905    1.3930 C   0  0  0  0  0  0  0  0  0  0  0  0
    3.4492    0.2045    1.5954 C   0  0  0  0  0  0  0  0  0  0  0  0
    3.3961   -1.6249    1.5549 S   0  0  0  0  0  0  0  0  0  0  0  0
    2.7570   -2.2869   -0.3842 S   0  0  0  0  0  0  0  0  0  0  0  0
    0.9678   -2.1410   -0.4837 C   0  0  0  0  0  0  0  0  0  0  0  0
    0.5104   -0.8188   -0.9953 C   0  0  2  0  0  0  0  0  0  0  0  0
    1.5012    0.2578   -0.9011 C   0  0  0  0  0  0  0  0  0  0  0  0
    2.1612    0.2830   -1.9530 O   0  0  0  0  0  0  0  0  0  0  0  0
  1  2  2  0
  2  3  1  0
  3  4  1  0
  4  5  2  0
  5  6  1  0
  6  7  1  0
  6  8  2  0
  8  9  1  0
  9 10  1  0
  9 11  2  0
  2 12  1  0
 12 13  1  0
 13 14  1  1
 14 15  1  0
 15 16  1  0
 16 17  1  0
 17 18  1  0
 19 18  1  1
 19 20  1  0
 20 21  2  0
 11  4  1  0
 19 11  1  0
 20 13  1  0
M  END
>  <fragInfo>  (1) 
1 2 3 4 5 6 7 8 9 10 11 12 13 14 15 16 17 18 19 20 21


>  <torsionInfo>  (1) 


>  <atomInfo>  (1) 
1  -0.2484869OA
2  0.31933155C 
3  -0.3075364N 
4  0.05074469A 
5  -0.0192363A 
6  0.04554926A 
7  -0.0841530Cl
8  -0.0071433A 
9  0.13022656A 
10 -0.2065392F 
11 0.02296736A 
12 -0.3280058N 
13 0.09076269C 
14 -0.0155507C 
15 0.00608671C 
16 -0.0940298SA
17 -0.0930482SA
18 0.01783318C 
19 0.05966109C 
20 0.16317825C 
21 -0.2966491OA


$$$$
