
     RDKit          3D

 27 30  0  0  0  0  0  0  0  0999 V2000
    2.3474    0.2555   -0.4894 O   0  0  0  0  0  0  0  0  0  0  0  0
    1.9373   -0.9137   -0.6992 C   0  0  0  0  0  0  0  0  0  0  0  0
    2.7973   -2.0448   -0.4493 N   0  0  0  0  0  0  0  0  0  0  0  0
    4.1257   -1.7316    0.0460 C   0  0  1  0  0  0  0  0  0  0  0  0
    5.3137   -2.1866   -0.8062 C   0  0  0  0  0  0  0  0  0  0  0  0
    4.8986   -0.7685   -0.7472 C   0  0  2  0  0  0  0  0  0  0  0  0
    5.7656    0.2534   -0.1168 C   0  0  0  0  0  0  0  0  0  0  0  0
    5.7610    1.5217   -0.6642 C   0  0  0  0  0  0  0  0  0  0  0  0
    6.5174    2.5573   -0.1758 C   0  0  0  0  0  0  0  0  0  0  0  0
    7.3233    2.3286    0.9135 C   0  0  0  0  0  0  0  0  0  0  0  0
    7.3409    1.0681    1.4737 C   0  0  0  0  0  0  0  0  0  0  0  0
    6.5681    0.0253    0.9681 C   0  0  0  0  0  0  0  0  0  0  0  0
    0.6162   -1.0742   -1.1838 N   0  0  0  0  0  0  0  0  0  0  0  0
   -0.1848    0.1121   -1.4095 C   0  0  0  0  0  0  0  0  0  0  0  0
   -0.3079    0.8334   -0.0815 C   0  0  0  0  0  0  0  0  0  0  0  0
   -0.9823   -0.1197    0.8841 C   0  0  0  0  0  0  0  0  0  0  0  0
   -2.3130   -0.4469    0.3075 C   0  0  0  0  0  0  0  0  0  0  0  0
   -3.4308    0.2565    0.5608 N   0  0  0  0  0  0  0  0  0  0  0  0
   -4.4594   -0.3098   -0.1211 C   0  0  0  0  0  0  0  0  0  0  0  0
   -5.8403    0.1320   -0.1303 C   0  0  0  0  0  0  0  0  0  0  0  0
   -6.2656    1.2184    0.5835 C   0  0  0  0  0  0  0  0  0  0  0  0
   -7.5857    1.6135    0.5543 C   0  0  0  0  0  0  0  0  0  0  0  0
   -8.4982    0.9063   -0.2052 C   0  0  0  0  0  0  0  0  0  0  0  0
   -8.0797   -0.1784   -0.9195 C   0  0  0  0  0  0  0  0  0  0  0  0
   -6.7569   -0.5676   -0.8851 C   0  0  0  0  0  0  0  0  0  0  0  0
   -3.9350   -1.3390   -0.7672 N   0  0  0  0  0  0  0  0  0  0  0  0
   -2.6727   -1.4011   -0.5012 O   0  0  0  0  0  0  0  0  0  0  0  0
  1  2  2  0
  2  3  1  0
  4  3  1  6
  4  5  1  0
  5  6  1  0
  6  7  1  1
  7  8  2  0
  8  9  1  0
  9 10  2  0
 10 11  1  0
 11 12  2  0
  2 13  1  0
 13 14  1  0
 14 15  1  0
 15 16  1  0
 16 17  1  0
 17 18  2  0
 18 19  1  0
 19 20  1  0
 20 21  2  0
 21 22  1  0
 22 23  2  0
 23 24  1  0
 24 25  2  0
 19 26  2  0
 26 27  1  0
  6  4  1  0
 12  7  1  0
 27 17  1  0
 25 20  1  0
M  END
>  <fragInfo>  (1) 
7 8 9 10 11 12
1 2 3 13
4 5 6
14
15
16
17 18 19 26 27
20 21 22 23 24 25


>  <torsionInfo>  (1) 
6 7 2 0
3 4 1 2
13 14 1 3
14 15 3 4
15 16 4 5
16 17 5 6
19 20 6 7


>  <atomInfo>  (1) 
1  -0.2489001OA
2  0.31452706C 
3  -0.3347948N 
4  0.03813201C 
5  -0.0232215C 
6  0.00622061C 
7  -0.0427878A 
8  -0.0586825A 
9  -0.0619824A 
10 -0.0622483A 
11 -0.0619824A 
12 -0.0586825A 
13 -0.3381441N 
14 0.01961045C 
15 -0.0268123C 
16 0.02864830C 
17 0.22652701A 
18 -0.1912227NA
19 0.20190404A 
20 0.02273286A 
21 -0.0510656A 
22 -0.0615338A 
23 -0.0622215A 
24 -0.0615338A 
25 -0.0510656A 
26 -0.0571443NA
27 -0.3389952OA


$$$$
