
     RDKit          3D

 29 33  0  0  0  0  0  0  0  0999 V2000
    2.7829   -0.1086    2.4397 C   0  0  0  0  0  0  0  0  0  0  0  0
    2.8225   -1.2016    1.6873 C   0  0  0  0  0  0  0  0  0  0  0  0
    4.0627   -1.5555    1.0674 N   0  0  0  0  0  0  0  0  0  0  0  0
    4.0743   -1.7256   -0.3509 C   0  0  2  0  0  0  0  0  0  0  0  0
    5.3562   -2.1081   -0.9741 C   0  0  0  0  0  0  0  0  0  0  0  0
    4.6564   -0.7674   -1.2906 C   0  0  2  0  0  0  0  0  0  0  0  0
    5.4202    0.3964   -0.7830 C   0  0  0  0  0  0  0  0  0  0  0  0
    6.0596    1.2533   -1.6616 C   0  0  0  0  0  0  0  0  0  0  0  0
    6.7539    2.3152   -1.1249 C   0  0  0  0  0  0  0  0  0  0  0  0
    6.8419    2.5626    0.2307 C   0  0  0  0  0  0  0  0  0  0  0  0
    6.1947    1.6905    1.0804 C   0  0  0  0  0  0  0  0  0  0  0  0
    5.5006    0.6306    0.5536 C   0  0  0  0  0  0  0  0  0  0  0  0
    1.6406   -1.9349    1.5565 N   0  0  0  0  0  0  0  0  0  0  0  0
    0.6843   -1.8972    0.5044 C   0  0  0  0  0  0  0  0  0  0  0  0
   -0.0839   -0.6029    0.4274 C   0  0  2  0  0  0  0  0  0  0  0  0
   -1.0955   -0.5671   -0.6788 C   0  0  1  0  0  0  0  0  0  0  0  0
   -2.4630   -0.2096   -0.1971 C   0  0  0  0  0  0  0  0  0  0  0  0
   -3.6074   -0.2696   -0.9006 N   0  0  0  0  0  0  0  0  0  0  0  0
   -4.6343    0.1320   -0.1338 C   0  0  0  0  0  0  0  0  0  0  0  0
   -6.0542    0.2399   -0.4439 C   0  0  0  0  0  0  0  0  0  0  0  0
   -6.5349   -0.0936   -1.6849 C   0  0  0  0  0  0  0  0  0  0  0  0
   -7.8732    0.0119   -1.9700 C   0  0  0  0  0  0  0  0  0  0  0  0
   -8.7375    0.4580   -0.9953 C   0  0  0  0  0  0  0  0  0  0  0  0
   -8.2168    0.7868    0.2476 C   0  0  0  0  0  0  0  0  0  0  0  0
   -6.9152    0.6715    0.4868 N   0  0  0  0  0  0  0  0  0  0  0  0
   -4.0614    0.4377    1.0656 N   0  0  0  0  0  0  0  0  0  0  0  0
   -2.7783    0.2312    1.0139 O   0  0  0  0  0  0  0  0  0  0  0  0
   -0.4243    0.6642   -1.2301 C   0  0  0  0  0  0  0  0  0  0  0  0
    0.6291    0.5602   -0.1564 C   0  0  0  0  0  0  0  0  0  0  0  0
  1  2  2  0
  2  3  1  0
  4  3  1  1
  4  5  1  0
  5  6  1  0
  6  7  1  1
  7  8  2  0
  8  9  1  0
  9 10  2  0
 10 11  1  0
 11 12  2  0
  2 13  1  0
 13 14  1  0
 15 14  1  6
 15 16  1  0
 16 17  1  1
 17 18  2  0
 18 19  1  0
 19 20  1  0
 20 21  2  0
 21 22  1  0
 22 23  2  0
 23 24  1  0
 24 25  2  0
 19 26  2  0
 26 27  1  0
 16 28  1  0
 28 29  1  0
  6  4  1  0
 12  7  1  0
 29 15  1  0
 27 17  1  0
 25 20  1  0
M  END
>  <fragInfo>  (1) 
7 8 9 10 11 12
1 2
3
4 5 6
13
14
15 16 28 29
17 18 19 26 27
20 21 22 23 24 25


>  <torsionInfo>  (1) 
6 7 3 0
2 3 1 2
2 13 1 4
3 4 2 3
13 14 4 5
14 15 5 6
16 17 6 7
19 20 7 8


>  <atomInfo>  (1) 
1  -0.0586862C 
2  0.09143423C 
3  -0.3690303N 
4  0.03499758C 
5  -0.0233408C 
6  0.00610151C 
7  -0.0427898A 
8  -0.0586825A 
9  -0.0619824A 
10 -0.0622483A 
11 -0.0619824A 
12 -0.0586825A 
13 -0.3720929N 
14 0.01957240C 
15 -0.0122806C 
16 0.04292735C 
17 0.22996876A 
18 -0.1895556NA
19 0.22050884A 
20 0.11113079A 
21 -0.0323542A 
22 -0.0584502A 
23 -0.0437662A 
24 0.02762940A 
25 -0.2527805NA
26 -0.0554004NA
27 -0.3386112OA
28 -0.0409074C 
29 -0.0472283C 


$$$$
