
     RDKit          3D

 20 22  0  0  0  0  0  0  0  0999 V2000
    0.0197    3.8454    0.0395 O   0  0  0  0  0  0  0  0  0  0  0  0
    0.1036    2.5754   -0.0810 C   0  0  0  0  0  0  0  0  0  0  0  0
   -1.1723    1.9489    0.1353 N   0  0  0  0  0  0  0  0  0  0  0  0
   -1.6382    0.6134    0.0906 C   0  0  0  0  0  0  0  0  0  0  0  0
   -3.0257    0.6585    0.1964 C   0  0  0  0  0  0  0  0  0  0  0  0
   -3.7918   -0.4878    0.1851 C   0  0  0  0  0  0  0  0  0  0  0  0
   -5.5408   -0.4471    0.3175 Cl  0  0  0  0  0  0  0  0  0  0  0  0
   -3.1260   -1.6896    0.0642 C   0  0  0  0  0  0  0  0  0  0  0  0
   -1.7454   -1.7384   -0.0413 C   0  0  0  0  0  0  0  0  0  0  0  0
   -1.0769   -2.9153   -0.1609 F   0  0  0  0  0  0  0  0  0  0  0  0
   -0.9769   -0.5908   -0.0301 C   0  0  0  0  0  0  0  0  0  0  0  0
    1.4218    2.1403   -0.3924 N   0  0  0  0  0  0  0  0  0  0  0  0
    2.1325    0.9048   -0.1700 C   0  0  0  0  0  0  0  0  0  0  0  0
    3.6025    1.0123   -0.0057 C   0  0  0  0  0  0  0  0  0  0  0  0
    4.0866   -0.3742   -0.2602 C   0  0  2  0  0  0  0  0  0  0  0  0
    2.9192   -1.2423    0.1633 C   0  0  0  0  0  0  0  0  0  0  0  0
    1.7468   -0.3556   -0.0739 C   0  0  0  0  0  0  0  0  0  0  0  0
    0.4195   -0.9964   -0.1580 C   0  0  0  0  0  0  0  0  0  0  0  0
    0.4966   -2.2277   -0.4073 O   0  0  0  0  0  0  0  0  0  0  0  0
    5.1452   -0.6337    0.5890 F   0  0  0  0  0  0  0  0  0  0  0  0
  1  2  2  0
  2  3  1  0
  3  4  1  0
  4  5  2  0
  5  6  1  0
  6  7  1  0
  6  8  2  0
  8  9  1  0
  9 10  1  0
  9 11  2  0
  2 12  1  0
 12 13  1  0
 13 14  1  0
 14 15  1  0
 15 16  1  0
 16 17  1  0
 17 18  1  0
 18 19  2  0
 15 20  1  1
 11  4  1  0
 18 11  1  0
 13 17  2  0
M  END
>  <fragInfo>  (1) 
1 2 3 4 5 6 7 8 9 10 11 12 13 14 15 16 17 18 19 20


>  <torsionInfo>  (1) 


>  <atomInfo>  (1) 
1  -0.2481164OA
2  0.32295800C 
3  -0.3068110N 
4  0.05801622A 
5  -0.0187823A 
6  0.04557738A 
7  -0.0841525Cl
8  -0.0066796A 
9  0.13745826A 
10 -0.2060529F 
11 0.08168598A 
12 -0.3109789N 
13 0.02961435C 
14 0.01976403C 
15 0.10978494C 
16 0.00967198C 
17 0.02269426C 
18 0.19541247C 
19 -0.2887042OA
20 -0.2466980F 


$$$$
