
     RDKit          3D

 26 29  0  0  0  0  0  0  0  0999 V2000
   -0.2614   -1.2488   -2.2532 O   0  0  0  0  0  0  0  0  0  0  0  0
   -0.3917   -0.9229   -1.0408 C   0  0  0  0  0  0  0  0  0  0  0  0
    0.6475   -0.6004   -0.1084 N   0  0  0  0  0  0  0  0  0  0  0  0
    2.0148   -0.8814    0.0706 C   0  0  0  0  0  0  0  0  0  0  0  0
    2.8215   -1.2671   -0.9841 C   0  0  0  0  0  0  0  0  0  0  0  0
    4.1639   -1.5429   -0.8138 C   0  0  0  0  0  0  0  0  0  0  0  0
    4.7512   -1.4411    0.4288 C   0  0  0  0  0  0  0  0  0  0  0  0
    6.0557   -1.6972    0.6628 F   0  0  0  0  0  0  0  0  0  0  0  0
    3.9598   -1.0570    1.4954 C   0  0  0  0  0  0  0  0  0  0  0  0
    4.6714   -0.9153    3.0920 Cl  0  0  0  0  0  0  0  0  0  0  0  0
    2.6230   -0.7854    1.3090 C   0  0  0  0  0  0  0  0  0  0  0  0
   -0.3237    0.1789    0.6253 C   0  0  1  0  0  0  0  0  0  0  0  0
   -0.3034    1.5901    0.1673 C   0  0  0  0  0  0  0  0  0  0  0  0
    0.9196    2.1909   -0.0049 C   0  0  0  0  0  0  0  0  0  0  0  0
    1.0849    3.4863   -0.4224 C   0  0  0  0  0  0  0  0  0  0  0  0
   -0.0746    4.2177   -0.6815 C   0  0  0  0  0  0  0  0  0  0  0  0
   -1.3004    3.5986   -0.5031 C   0  0  0  0  0  0  0  0  0  0  0  0
   -1.4083    2.3139   -0.0880 N   0  0  0  0  0  0  0  0  0  0  0  0
   -1.3702   -0.6932    0.0173 C   0  0  1  0  0  0  0  0  0  0  0  0
   -2.6720   -0.0567   -0.3219 C   0  0  2  0  0  0  0  0  0  0  0  0
   -3.4461    0.0649    1.0028 C   0  0  0  0  0  0  0  0  0  0  0  0
   -4.7708   -0.4054    0.7108 N   0  0  0  0  0  0  0  0  0  0  0  0
   -6.1810   -0.0179    1.6355 Cl  0  0  0  0  0  0  0  0  0  0  0  0
   -4.6869   -1.2078   -0.4304 C   0  0  0  0  0  0  0  0  0  0  0  0
   -3.5164   -1.0435   -1.0476 C   0  0  0  0  0  0  0  0  0  0  0  0
   -3.0061   -1.8573   -2.5177 Cl  0  0  0  0  0  0  0  0  0  0  0  0
  1  2  2  0
  2  3  1  0
  3  4  1  0
  4  5  2  0
  5  6  1  0
  6  7  2  0
  7  8  1  0
  7  9  1  0
  9 10  1  0
  9 11  2  0
  3 12  1  0
 12 13  1  6
 13 14  2  0
 14 15  1  0
 15 16  2  0
 16 17  1  0
 17 18  2  0
 12 19  1  0
 19 20  1  0
 20 21  1  1
 21 22  1  0
 22 23  1  0
 22 24  1  0
 24 25  2  0
 25 26  1  0
 19  2  1  6
 11  4  1  0
 18 13  1  0
 25 20  1  0
M  END
>  <fragInfo>  (1) 
4 5 6 7 8 9 10 11
1 2 3 12 19
13 14 15 16 17 18
20 21 22 23 24 25 26


>  <torsionInfo>  (1) 
3 4 1 0
12 13 1 2
19 20 1 3


>  <atomInfo>  (1) 
1  -0.2740410OA
2  0.23348753C 
3  -0.3021240N 
4  0.04611712A 
5  -0.0352702A 
6  -0.0226871A 
7  0.14143861A 
8  -0.2053590F 
9  0.07835147A 
10 -0.0810568Cl
11 -0.0165781A 
12 0.09124052C 
13 0.06413609A 
14 -0.0383805A 
15 -0.0588459A 
16 -0.0437944A 
17 0.02716004A 
18 -0.2590628NA
19 0.07456875C 
20 0.02920644C 
21 0.04291447C 
22 -0.2907197N 
23 0.01250146Cl
24 0.03101797C 
25 0.04106240C 
26 -0.0871107Cl


$$$$
