
     RDKit          3D

 19 21  0  0  0  0  0  0  0  0999 V2000
   -0.6610    2.9147   -2.4024 O   0  0  0  0  0  0  0  0  0  0  0  0
   -0.7336    1.9992   -1.5345 C   0  0  0  0  0  0  0  0  0  0  0  0
    0.0753    1.7567   -0.4735 N   0  0  0  0  0  0  0  0  0  0  0  0
    0.9485    0.7490   -0.0108 C   0  0  0  0  0  0  0  0  0  0  0  0
    2.3497    0.9818   -0.0003 C   0  0  0  0  0  0  0  0  0  0  0  0
    3.2959    0.1184    0.3766 C   0  0  0  0  0  0  0  0  0  0  0  0
    5.0213    0.4948    0.3579 Cl  0  0  0  0  0  0  0  0  0  0  0  0
    2.9403   -1.1392    0.8075 C   0  0  0  0  0  0  0  0  0  0  0  0
    1.6013   -1.4400    0.8270 C   0  0  0  0  0  0  0  0  0  0  0  0
    1.1883   -3.0865    1.3338 Cl  0  0  0  0  0  0  0  0  0  0  0  0
    0.6024   -0.5155    0.4277 C   0  0  0  0  0  0  0  0  0  0  0  0
   -1.8735    1.1166   -1.7665 N   0  0  0  0  0  0  0  0  0  0  0  0
   -2.4948    0.4504   -0.7220 C   0  0  0  0  0  0  0  0  0  0  0  0
   -2.1576    0.9400    0.6715 C   0  0  0  0  0  0  0  0  0  0  0  0
   -1.9082   -0.4127    1.2802 C   0  0  1  0  0  0  0  0  0  0  0  0
   -3.1655   -1.1611    0.7803 C   0  0  0  0  0  0  0  0  0  0  0  0
   -3.3239   -0.5510   -0.5768 C   0  0  0  0  0  0  0  0  0  0  0  0
   -0.7564   -1.0341    0.5841 C   0  0  0  0  0  0  0  0  0  0  0  0
   -0.9485   -2.1814    0.0403 O   0  0  0  0  0  0  0  0  0  0  0  0
  1  2  2  0
  2  3  1  0
  3  4  1  0
  4  5  2  0
  5  6  1  0
  6  7  1  0
  6  8  2  0
  8  9  1  0
  9 10  1  0
  9 11  2  0
  2 12  1  0
 12 13  1  0
 13 14  1  0
 14 15  1  0
 15 16  1  6
 16 17  1  0
 15 18  1  0
 18 19  2  0
 11  4  1  0
 18 11  1  0
 13 17  2  0
M  END
>  <fragInfo>  (1) 
1 2 3 4 5 6 7 8 9 10 11 12 13 14 15 16 17 18 19


>  <torsionInfo>  (1) 


>  <atomInfo>  (1) 
1  -0.2481168OA
2  0.32293372C 
3  -0.3068784N 
4  0.05619994A 
5  -0.0189025A 
6  0.04414753A 
7  -0.0842072Cl
8  -0.0239021A 
9  0.05495852A 
10 -0.0834125Cl
11 0.06021051A 
12 -0.3118089N 
13 0.01626988C 
14 -0.0023615C 
15 0.03144132C 
16 -0.0225183C 
17 -0.0642324C 
18 0.16973925C 
19 -0.2937089OA


$$$$
