
     RDKit          3D

 29 33  0  0  0  0  0  0  0  0999 V2000
   -2.6069    0.7603    0.7139 O   0  0  0  0  0  0  0  0  0  0  0  0
   -2.5538   -0.3376    1.2757 C   0  0  0  0  0  0  0  0  0  0  0  0
   -3.2996   -0.4616    2.4955 N   0  0  0  0  0  0  0  0  0  0  0  0
   -4.0584    0.6415    3.0156 C   0  0  1  0  0  0  0  0  0  0  0  0
   -4.1329    1.9380    2.3110 C   0  0  0  0  0  0  0  0  0  0  0  0
   -5.3752    1.0337    2.4715 C   0  0  1  0  0  0  0  0  0  0  0  0
   -5.8761    0.5387    1.1894 C   0  0  0  0  0  0  0  0  0  0  0  0
   -6.4527   -0.6986    1.0021 C   0  0  0  0  0  0  0  0  0  0  0  0
   -6.9070   -1.1126   -0.2255 C   0  0  0  0  0  0  0  0  0  0  0  0
   -6.7881   -0.2754   -1.3079 C   0  0  0  0  0  0  0  0  0  0  0  0
   -6.2107    0.9914   -1.1736 C   0  0  0  0  0  0  0  0  0  0  0  0
   -5.7776    1.3460    0.0739 C   0  0  0  0  0  0  0  0  0  0  0  0
   -1.8027   -1.4118    0.7498 N   0  0  0  0  0  0  0  0  0  0  0  0
   -1.0307   -1.3869   -0.4297 C   0  0  0  0  0  0  0  0  0  0  0  0
    0.1066   -0.4602   -0.5294 C   0  0  2  0  0  0  0  0  0  0  0  0
    1.2113   -0.6388    0.5080 C   0  0  1  0  0  0  0  0  0  0  0  0
    2.5574   -0.8793   -0.1097 C   0  0  0  0  0  0  0  0  0  0  0  0
    3.5503    0.0190   -0.3201 N   0  0  0  0  0  0  0  0  0  0  0  0
    4.5973   -0.5898   -0.8967 C   0  0  0  0  0  0  0  0  0  0  0  0
    5.8795   -0.0192   -1.3027 C   0  0  0  0  0  0  0  0  0  0  0  0
    6.1425    1.3186   -1.1082 C   0  0  0  0  0  0  0  0  0  0  0  0
    7.3441    1.9035   -1.4779 C   0  0  0  0  0  0  0  0  0  0  0  0
    8.3167    1.1198   -2.0632 C   0  0  0  0  0  0  0  0  0  0  0  0
    8.0287   -0.2161   -2.2467 C   0  0  0  0  0  0  0  0  0  0  0  0
    6.8417   -0.7628   -1.8745 N   0  0  0  0  0  0  0  0  0  0  0  0
    4.2241   -1.8744   -1.0337 N   0  0  0  0  0  0  0  0  0  0  0  0
    3.0153   -2.0238   -0.5622 O   0  0  0  0  0  0  0  0  0  0  0  0
    1.1023    0.8144    0.9187 C   0  0  0  0  0  0  0  0  0  0  0  0
   -0.0451    0.9560   -0.0637 C   0  0  0  0  0  0  0  0  0  0  0  0
  1  2  2  0
  2  3  1  0
  4  3  1  6
  4  5  1  0
  5  6  1  0
  6  7  1  6
  7  8  2  0
  8  9  1  0
  9 10  2  0
 10 11  1  0
 11 12  2  0
  2 13  1  0
 13 14  1  0
 15 14  1  1
 15 16  1  0
 16 17  1  6
 17 18  2  0
 18 19  1  0
 19 20  1  0
 20 21  2  0
 21 22  1  0
 22 23  2  0
 23 24  1  0
 24 25  2  0
 19 26  2  0
 26 27  1  0
 16 28  1  0
 28 29  1  0
  6  4  1  0
 12  7  1  0
 29 15  1  0
 27 17  1  0
 25 20  1  0
M  END
>  <fragInfo>  (1) 
7 8 9 10 11 12
1 2 3 13
4 5 6
14
15 16 28 29
17 18 19 26 27
20 21 22 23 24 25


>  <torsionInfo>  (1) 
6 7 2 0
3 4 1 2
13 14 1 3
14 15 3 4
16 17 4 5
19 20 5 6


>  <atomInfo>  (1) 
1  -0.2488999OA
2  0.31453693C 
3  -0.3347946N 
4  0.03813201C 
5  -0.0232215C 
6  0.00622061C 
7  -0.0427878A 
8  -0.0586825A 
9  -0.0619824A 
10 -0.0622483A 
11 -0.0619824A 
12 -0.0586825A 
13 -0.3378544N 
14 0.02271350C 
15 -0.0121641C 
16 0.04292933C 
17 0.22996878A 
18 -0.1895556NA
19 0.22050884A 
20 0.11113079A 
21 -0.0323542A 
22 -0.0584502A 
23 -0.0437662A 
24 0.02762940A 
25 -0.2527805NA
26 -0.0554004NA
27 -0.3386112OA
28 -0.0409074C 
29 -0.0472263C 


$$$$
