
     RDKit          3D

 29 32  0  0  0  0  0  0  0  0999 V2000
    1.8012   -1.1624    1.2116 O   0  0  0  0  0  0  0  0  0  0  0  0
    0.9872   -0.7386    0.3222 C   0  0  0  0  0  0  0  0  0  0  0  0
    1.5844   -0.4383   -0.9227 N   0  0  0  0  0  0  0  0  0  0  0  0
    3.0090   -0.5973   -1.1734 C   0  0  2  0  0  0  0  0  0  0  0  0
    3.5281   -2.0041   -1.0722 C   0  0  0  0  0  0  0  0  0  0  0  0
    3.9523   -0.9070   -0.0716 C   0  0  1  0  0  0  0  0  0  0  0  0
    5.3831   -0.5101   -0.2133 C   0  0  0  0  0  0  0  0  0  0  0  0
    5.8118    0.4471   -1.1036 C   0  0  0  0  0  0  0  0  0  0  0  0
    7.1456    0.7801   -1.2017 C   0  0  0  0  0  0  0  0  0  0  0  0
    8.0896    0.1726   -0.4202 C   0  0  0  0  0  0  0  0  0  0  0  0
    7.6797   -0.7889    0.4780 C   0  0  0  0  0  0  0  0  0  0  0  0
    6.3457   -1.1184    0.5731 C   0  0  0  0  0  0  0  0  0  0  0  0
   -0.3890   -0.6066    0.6282 N   0  0  0  0  0  0  0  0  0  0  0  0
   -0.8412   -0.9689    1.9684 C   0  0  0  0  0  0  0  0  0  0  0  0
   -2.0394   -1.9106    1.8627 C   0  0  0  0  0  0  0  0  0  0  0  0
   -2.4723   -2.0251    0.4083 C   0  0  2  0  0  0  0  0  0  0  0  0
   -3.8360   -1.5213    0.1769 C   0  0  0  0  0  0  0  0  0  0  0  0
   -4.1909   -0.3231    0.0478 N   0  0  0  0  0  0  0  0  0  0  0  0
   -3.4605    0.8760    0.0770 C   0  0  0  0  0  0  0  0  0  0  0  0
   -4.1885    2.1309    0.2550 C   0  0  0  0  0  0  0  0  0  0  0  0
   -3.6374    3.3291   -0.1097 C   0  0  0  0  0  0  0  0  0  0  0  0
   -4.3215    4.5181    0.0603 C   0  0  0  0  0  0  0  0  0  0  0  0
   -5.5727    4.4679    0.6060 C   0  0  0  0  0  0  0  0  0  0  0  0
   -6.1146    3.2685    0.9670 C   0  0  0  0  0  0  0  0  0  0  0  0
   -5.4155    2.1254    0.7857 N   0  0  0  0  0  0  0  0  0  0  0  0
   -2.1884    0.8774   -0.0557 N   0  0  0  0  0  0  0  0  0  0  0  0
   -1.3414   -0.1685   -0.2355 O   0  0  0  0  0  0  0  0  0  0  0  0
   -2.4443   -3.4999    0.0413 C   0  0  0  0  0  0  0  0  0  0  0  0
   -2.8642   -3.7043   -1.3981 C   0  0  0  0  0  0  0  0  0  0  0  0
  1  2  2  0
  2  3  1  0
  4  3  1  1
  4  5  1  0
  5  6  1  0
  6  7  1  6
  7  8  2  0
  8  9  1  0
  9 10  2  0
 10 11  1  0
 11 12  2  0
  2 13  1  0
 13 14  1  0
 14 15  1  0
 15 16  1  0
 16 17  1  0
 17 18  2  3
 18 19  1  0
 19 20  1  0
 20 21  2  0
 21 22  1  0
 22 23  2  0
 23 24  1  0
 24 25  2  0
 19 26  2  3
 26 27  1  0
 16 28  1  1
 28 29  1  0
  6  4  1  0
 12  7  1  0
 27 13  1  0
 25 20  1  0
M  END
>  <fragInfo>  (1) 
13 14 15 16 17 18 19 26 27
1 2 3
4 5 6
7 8 9 10 11 12
20 21 22 23 24 25
28 29


>  <torsionInfo>  (1) 
2 13 1 0
16 28 0 5
19 20 0 4
3 4 1 2
6 7 2 3


>  <atomInfo>  (1) 
1  -0.2452470OA
2  0.35224047C 
3  -0.3320843N 
4  0.03824551C 
5  -0.0232195C 
6  0.00622258C 
7  -0.0427878A 
8  -0.0586825A 
9  -0.0619824A 
10 -0.0622483A 
11 -0.0619824A 
12 -0.0586825A 
13 -0.1314517N 
14 0.06442245C 
15 -0.0239172C 
16 -0.0041380C 
17 0.01014666C 
18 -0.2364887NA
19 0.21959047C 
20 0.11109955A 
21 -0.0323547A 
22 -0.0584502A 
23 -0.0437662A 
24 0.02762940A 
25 -0.2527810NA
26 -0.0314257NA
27 -0.2613712OA
28 -0.0482520C 
29 -0.0647640C 


$$$$
