
     RDKit          3D

 21 23  0  0  0  0  0  0  0  0999 V2000
   -1.2431    1.2216    2.8952 O   0  0  0  0  0  0  0  0  0  0  0  0
   -0.7264    0.8506    1.8102 C   0  0  0  0  0  0  0  0  0  0  0  0
    0.6301    1.2329    1.5647 N   0  0  0  0  0  0  0  0  0  0  0  0
    1.6084    0.5406    0.7588 C   0  0  0  0  0  0  0  0  0  0  0  0
    2.9015    0.8635    1.0697 C   0  0  0  0  0  0  0  0  0  0  0  0
    3.9464    0.2805    0.3832 C   0  0  0  0  0  0  0  0  0  0  0  0
    5.6311    0.6724    0.7564 Cl  0  0  0  0  0  0  0  0  0  0  0  0
    3.6364   -0.6255   -0.6120 C   0  0  0  0  0  0  0  0  0  0  0  0
    2.3194   -0.9518   -0.9259 C   0  0  0  0  0  0  0  0  0  0  0  0
    1.9161   -2.0931   -2.1792 Cl  0  0  0  0  0  0  0  0  0  0  0  0
    1.2842   -0.3626   -0.2329 C   0  0  0  0  0  0  0  0  0  0  0  0
   -1.5543    0.0869    0.9420 N   0  0  0  0  0  0  0  0  0  0  0  0
   -2.7411   -0.3847    1.6738 C   0  0  0  0  0  0  0  0  0  0  0  0
   -3.9494   -0.0275    0.8441 C   0  0  0  0  0  0  0  0  0  0  0  0
   -3.5911    1.2016    0.0249 C   0  0  0  0  0  0  0  0  0  0  0  0
   -2.5406   -0.4767   -1.3922 S   0  0  1  0  0  0  0  0  0  0  0  0
   -1.3659   -0.2413   -0.4572 C   0  0  2  0  0  0  0  0  0  0  0  0
   -0.0480   -0.8072   -0.6781 C   0  0  0  0  0  0  0  0  0  0  0  0
    0.0210   -1.8776   -1.3740 O   0  0  0  0  0  0  0  0  0  0  0  0
   -3.8750   -0.8592   -2.2013 Cl  0  0  0  0  0  0  0  0  0  0  0  0
   -2.2597    1.7564   -2.6703 Cl  0  0  0  0  0  0  0  0  0  0  0  0
  1  2  2  0
  2  3  1  0
  3  4  1  0
  4  5  2  0
  5  6  1  0
  6  7  1  0
  6  8  2  0
  8  9  1  0
  9 10  1  0
  9 11  2  0
  2 12  1  0
 12 13  1  0
 13 14  1  0
 14 15  1  0
 15 16  1  0
 17 16  1  1
 17 18  1  0
 18 19  2  0
 16 20  1  0
 16 21  1  0
 11  4  1  0
 18 11  1  0
 17 12  1  0
M  END
>  <fragInfo>  (1) 
1 2 3 4 5 6 7 8 9 10 11 12 13 14 15 16 17 18 19 20 21


>  <torsionInfo>  (1) 


>  <atomInfo>  (1) 
1  -0.2482191OA
2  0.32267936C 
3  -0.3069509N 
4  0.05630673A 
5  -0.0189007A 
6  0.04414756A 
7  -0.0842072Cl
8  -0.0239002A 
9  0.05506947A 
10 -0.0834105Cl
11 0.06308463A 
12 -0.3042632N 
13 0.02469884C 
14 -0.0253997C 
15 0.00712280C 
16 -0.0552378S 
17 0.15201025C 
18 0.19949663C 
19 -0.2906590OA
20 -0.0483151Cl
21 -0.0483151Cl


$$$$
