
     RDKit          3D

 20 21  0  0  0  0  0  0  0  0999 V2000
   -0.3885    3.7735    0.6248 O   0  0  0  0  0  0  0  0  0  0  0  0
   -0.3555    2.5026    0.3799 C   0  0  0  0  0  0  0  0  0  0  0  0
    0.7784    1.8293    0.7635 N   0  0  0  0  0  0  0  0  0  0  0  0
    1.4839    0.7182    0.2454 C   0  0  0  0  0  0  0  0  0  0  0  0
    2.8642    0.8032   -0.0317 C   0  0  0  0  0  0  0  0  0  0  0  0
    3.6212   -0.2003   -0.5286 C   0  0  0  0  0  0  0  0  0  0  0  0
    5.3367    0.0756   -0.8169 Cl  0  0  0  0  0  0  0  0  0  0  0  0
    3.0602   -1.4179   -0.8048 C   0  0  0  0  0  0  0  0  0  0  0  0
    1.7099   -1.5586   -0.5523 C   0  0  0  0  0  0  0  0  0  0  0  0
    1.1948   -2.7884   -0.8494 F   0  0  0  0  0  0  0  0  0  0  0  0
    0.9292   -0.5161   -0.0367 C   0  0  0  0  0  0  0  0  0  0  0  0
   -1.4589    1.9336   -0.2443 N   0  0  0  0  0  0  0  0  0  0  0  0
   -2.6238    1.3037    0.2884 C   0  0  0  0  0  0  0  0  0  0  0  0
   -3.0844    0.2373   -0.6795 C   0  0  0  0  0  0  0  0  0  0  0  0
   -3.3996   -0.9575    0.1493 C   0  0  0  0  0  0  0  0  0  0  0  0
   -2.5869   -1.1726    1.3751 C   0  0  0  0  0  0  0  0  0  0  0  0
   -1.2976   -0.3742    1.3268 C   0  0  0  0  0  0  0  0  0  0  0  0
   -0.4697   -0.8507    0.1777 C   0  0  0  0  0  0  0  0  0  0  0  0
   -1.0422   -1.5977   -0.6580 O   0  0  0  0  0  0  0  0  0  0  0  0
   -4.2714   -1.7429   -0.1288 O   0  0  0  0  0  0  0  0  0  0  0  0
  1  2  2  0
  2  3  1  0
  3  4  1  0
  4  5  2  0
  5  6  1  0
  6  7  1  0
  6  8  2  0
  8  9  1  0
  9 10  1  0
  9 11  2  0
  2 12  1  0
 12 13  1  0
 13 14  1  0
 14 15  1  0
 15 16  1  0
 16 17  1  0
 17 18  1  0
 18 19  2  0
 15 20  2  0
 11  4  1  0
 18 11  1  0
M  END
>  <fragInfo>  (1) 
1 2 3 4 5 6 7 8 9 10 11 12 13 14 15 16 17 18 19 20


>  <torsionInfo>  (1) 


>  <atomInfo>  (1) 
1  -0.2485078OA
2  0.31877137C 
3  -0.3071149N 
4  0.05763665A 
5  -0.0187957A 
6  0.04557694A 
7  -0.0841525Cl
8  -0.0066931A 
9  0.13709156A 
10 -0.2060668F 
11 0.07699516A 
12 -0.3374234N 
13 0.02604034C 
14 0.02364201C 
15 0.13461924C 
16 0.01341283C 
17 0.01791487C 
18 0.16786518C 
19 -0.2939805OA
20 -0.2996292OA


$$$$
