
     RDKit          3D

 28 31  0  0  0  0  0  0  0  0999 V2000
    0.9640   -0.2315   -2.5047 O   0  0  0  0  0  0  0  0  0  0  0  0
    0.5878   -0.6598   -1.3509 C   0  0  0  0  0  0  0  0  0  0  0  0
   -0.6945   -0.7489   -0.8001 N   0  0  0  0  0  0  0  0  0  0  0  0
   -1.9686   -0.2236   -1.1056 C   0  0  0  0  0  0  0  0  0  0  0  0
   -2.9717   -0.1770   -0.1486 C   0  0  0  0  0  0  0  0  0  0  0  0
   -4.2244    0.3262   -0.4338 C   0  0  0  0  0  0  0  0  0  0  0  0
   -4.4904    0.7966   -1.7039 C   0  0  0  0  0  0  0  0  0  0  0  0
   -5.7177    1.2981   -2.0179 F   0  0  0  0  0  0  0  0  0  0  0  0
   -3.5275    0.7666   -2.6697 C   0  0  0  0  0  0  0  0  0  0  0  0
   -3.8923    1.3715   -4.2686 Cl  0  0  0  0  0  0  0  0  0  0  0  0
   -2.2714    0.2526   -2.3529 C   0  0  0  0  0  0  0  0  0  0  0  0
   -0.1960   -1.6134    0.2225 C   0  0  2  0  0  0  0  0  0  0  0  0
   -0.7126   -1.3997    1.5772 C   0  0  0  0  0  0  0  0  0  0  0  0
   -1.0919   -2.4971    2.3187 C   0  0  0  0  0  0  0  0  0  0  0  0
   -1.5928   -2.3663    3.5986 C   0  0  0  0  0  0  0  0  0  0  0  0
   -1.6968   -1.0675    4.1067 C   0  0  0  0  0  0  0  0  0  0  0  0
   -1.3174    0.0187    3.3642 C   0  0  0  0  0  0  0  0  0  0  0  0
   -0.8394   -0.1805    2.1283 N   0  0  0  0  0  0  0  0  0  0  0  0
    1.1453   -1.2069   -0.1471 C   0  0  2  0  0  0  0  0  0  0  0  0
    2.1089   -0.5670    0.7060 C   0  0  0  0  0  0  0  0  0  0  0  0
    3.4194   -0.1857    0.1782 C   0  0  1  0  0  0  0  0  0  0  0  0
    3.5529    0.7315   -0.8969 N   0  0  0  0  0  0  0  0  0  0  0  0
    3.7471    1.8138    0.0516 C   0  0  0  0  0  0  0  0  0  0  0  0
    4.1563    0.7729    1.0727 C   0  0  1  0  0  0  0  0  0  0  0  0
    3.5570    1.0745    2.4049 C   0  0  0  0  0  0  0  0  0  0  0  0
    4.4242    1.9787    3.0346 F   0  0  0  0  0  0  0  0  0  0  0  0
    4.7531    0.4951   -1.6759 C   0  0  0  0  0  0  0  0  0  0  0  0
    4.7896    1.4284   -2.6873 F   0  0  0  0  0  0  0  0  0  0  0  0
  1  2  2  0
  2  3  1  0
  3  4  1  0
  4  5  2  0
  5  6  1  0
  6  7  2  0
  7  8  1  0
  7  9  1  0
  9 10  1  0
  9 11  2  0
  3 12  1  0
 12 13  1  1
 13 14  2  0
 14 15  1  0
 15 16  2  0
 16 17  1  0
 17 18  2  0
 12 19  1  0
 19 20  1  1
 21 20  1  1
 21 22  1  0
 22 23  1  0
 23 24  1  0
 24 25  1  1
 25 26  1  0
 22 27  1  0
 27 28  1  0
 19  2  1  0
 11  4  1  0
 18 13  1  0
 24 21  1  0
M  END
>  <fragInfo>  (1) 
4 5 6 7 8 9 10 11
1 2 3 12 19
13 14 15 16 17 18
20
21 22 23 24
25 26
27 28


>  <torsionInfo>  (1) 
3 4 1 0
12 13 1 2
19 20 1 3
20 21 3 4
22 27 4 6
24 25 4 5


>  <atomInfo>  (1) 
1  -0.2740674OA
2  0.23281930C 
3  -0.3021690N 
4  0.04611626A 
5  -0.0352702A 
6  -0.0226871A 
7  0.14143861A 
8  -0.2053590F 
9  0.07835147A 
10 -0.0810568Cl
11 -0.0165781A 
12 0.09059840C 
13 0.06411138A 
14 -0.0383809A 
15 -0.0588459A 
16 -0.0437944A 
17 0.02716004A 
18 -0.2590632NA
19 0.06656329C 
20 -0.0229091C 
21 0.01938105C 
22 -0.2726633NA
23 0.00772737C 
24 0.01579761C 
25 0.09493613C 
26 -0.2506852F 
27 0.14276975C 
28 -0.2337825F 


$$$$
