
     RDKit          3D

 23 25  0  0  0  0  0  0  0  0999 V2000
   -0.6236    2.9725   -1.2824 O   0  0  0  0  0  0  0  0  0  0  0  0
   -0.8755    1.8010   -0.9401 C   0  0  0  0  0  0  0  0  0  0  0  0
   -0.0999    0.7278   -0.4418 N   0  0  0  0  0  0  0  0  0  0  0  0
    1.2732    0.3165   -0.5397 C   0  0  0  0  0  0  0  0  0  0  0  0
    1.8177    0.0889   -1.7848 C   0  0  0  0  0  0  0  0  0  0  0  0
    3.1259   -0.3074   -1.9614 C   0  0  0  0  0  0  0  0  0  0  0  0
    3.8988   -0.4756   -0.8333 C   0  0  0  0  0  0  0  0  0  0  0  0
    5.1890   -0.8650   -0.9792 F   0  0  0  0  0  0  0  0  0  0  0  0
    3.3914   -0.2582    0.4254 C   0  0  0  0  0  0  0  0  0  0  0  0
    4.4320   -0.4920    1.8177 Cl  0  0  0  0  0  0  0  0  0  0  0  0
    2.0604    0.1428    0.5630 C   0  0  0  0  0  0  0  0  0  0  0  0
   -1.2963    0.2274    0.2096 C   0  0  2  0  0  0  0  0  0  0  0  0
   -1.4894   -1.2378    0.1105 C   0  0  0  0  0  0  0  0  0  0  0  0
   -1.3120   -1.9400   -1.0633 C   0  0  0  0  0  0  0  0  0  0  0  0
   -1.5038   -3.3115   -1.1157 C   0  0  0  0  0  0  0  0  0  0  0  0
   -1.8801   -3.9967    0.0258 C   0  0  0  0  0  0  0  0  0  0  0  0
   -2.0480   -3.2717    1.1747 C   0  0  0  0  0  0  0  0  0  0  0  0
   -1.8547   -1.9266    1.2046 N   0  0  0  0  0  0  0  0  0  0  0  0
   -2.0634    0.9326   -0.8698 C   0  0  1  0  0  0  0  0  0  0  0  0
   -3.2597    1.7232   -0.3673 C   0  0  0  0  0  0  0  0  0  0  0  0
   -3.0023    2.2792    0.9933 C   0  0  0  0  0  0  0  0  0  0  0  0
   -2.0516    3.1423    1.1931 N   0  0  0  0  0  0  0  0  0  0  0  0
   -1.8283    3.7283    2.7948 Cl  0  0  0  0  0  0  0  0  0  0  0  0
  1  2  2  0
  2  3  1  0
  3  4  1  0
  4  5  2  0
  5  6  1  0
  6  7  2  0
  7  8  1  0
  7  9  1  0
  9 10  1  0
  9 11  2  0
  3 12  1  0
 12 13  1  6
 13 14  2  0
 14 15  1  0
 15 16  2  0
 16 17  1  0
 17 18  2  0
 12 19  1  0
 19 20  1  1
 20 21  1  0
 21 22  2  3
 22 23  1  0
 19  2  1  0
 11  4  1  0
 18 13  1  0
M  END
>  <fragInfo>  (1) 
4 5 6 7 8 9 10 11
1 2 3 12 19
13 14 15 16 17 18
20
21 22 23


>  <torsionInfo>  (1) 
3 4 1 0
12 13 1 2
19 20 1 3
20 21 3 4


>  <atomInfo>  (1) 
1  -0.2740544OA
2  0.23313355C 
3  -0.3021469N 
4  0.04611669A 
5  -0.0352702A 
6  -0.0226871A 
7  0.14143861A 
8  -0.2053590F 
9  0.07835147A 
10 -0.0810568Cl
11 -0.0165781A 
12 0.09089984C 
13 0.06412350A 
14 -0.0383807A 
15 -0.0588459A 
16 -0.0437944A 
17 0.02716004A 
18 -0.2590630NA
19 0.07002815C 
20 -0.0021844C 
21 0.01986216C 
22 -0.1904842NA
23 0.03612363Cl


$$$$
