
     RDKit          3D

 29 33  0  0  0  0  0  0  0  0999 V2000
    1.7325   -0.1840    1.2505 O   0  0  0  0  0  0  0  0  0  0  0  0
    1.9457   -0.6637    0.1249 C   0  0  0  0  0  0  0  0  0  0  0  0
    3.2653   -0.5378   -0.3997 N   0  0  0  0  0  0  0  0  0  0  0  0
    4.3264    0.1153    0.3256 C   0  0  1  0  0  0  0  0  0  0  0  0
    4.7602   -0.2788    1.6652 C   0  0  0  0  0  0  0  0  0  0  0  0
    5.5971   -0.7637    0.5603 C   0  0  2  0  0  0  0  0  0  0  0  0
    6.8768   -0.1213    0.1775 C   0  0  0  0  0  0  0  0  0  0  0  0
    8.0308   -0.5169    0.8237 C   0  0  0  0  0  0  0  0  0  0  0  0
    9.2524    0.0659    0.4870 C   0  0  0  0  0  0  0  0  0  0  0  0
    9.3278    1.0417   -0.4902 C   0  0  0  0  0  0  0  0  0  0  0  0
    8.1794    1.4395   -1.1379 C   0  0  0  0  0  0  0  0  0  0  0  0
    6.9810    0.8518   -0.7917 C   0  0  0  0  0  0  0  0  0  0  0  0
    0.8927   -1.2949   -0.5629 N   0  0  0  0  0  0  0  0  0  0  0  0
   -0.4491   -1.4168   -0.0208 C   0  0  2  0  0  0  0  0  0  0  0  0
   -1.4014   -0.8540   -1.0528 C   0  0  0  0  0  0  0  0  0  0  0  0
   -1.5919    0.6083   -0.7403 C   0  0  1  0  0  0  0  0  0  0  0  0
   -2.9791    0.8814   -0.2479 C   0  0  0  0  0  0  0  0  0  0  0  0
   -4.0234    0.0239   -0.3293 N   0  0  0  0  0  0  0  0  0  0  0  0
   -5.1200    0.6040    0.2138 C   0  0  0  0  0  0  0  0  0  0  0  0
   -6.4587    0.0466    0.3381 C   0  0  0  0  0  0  0  0  0  0  0  0
   -6.7003   -1.2206   -0.1347 C   0  0  0  0  0  0  0  0  0  0  0  0
   -7.9232   -1.8140   -0.0562 C   0  0  0  0  0  0  0  0  0  0  0  0
   -8.9597   -1.1148    0.5205 C   0  0  0  0  0  0  0  0  0  0  0  0
   -8.6943    0.1619    0.9906 C   0  0  0  0  0  0  0  0  0  0  0  0
   -7.4710    0.7207    0.8976 N   0  0  0  0  0  0  0  0  0  0  0  0
   -4.7042    1.8216    0.6187 N   0  0  0  0  0  0  0  0  0  0  0  0
   -3.4391    1.9476    0.3300 O   0  0  0  0  0  0  0  0  0  0  0  0
   -0.6814    0.9034    0.4318 C   0  0  0  0  0  0  0  0  0  0  0  0
   -0.5710   -0.4524    1.1442 C   0  0  0  0  0  0  0  0  0  0  0  0
  1  2  2  0
  2  3  1  0
  4  3  1  6
  4  5  1  0
  5  6  1  0
  6  7  1  1
  7  8  2  0
  8  9  1  0
  9 10  2  0
 10 11  1  0
 11 12  2  0
  2 13  1  0
 14 13  1  6
 14 15  1  0
 15 16  1  0
 16 17  1  1
 17 18  2  0
 18 19  1  0
 19 20  1  0
 20 21  2  0
 21 22  1  0
 22 23  2  0
 23 24  1  0
 24 25  2  0
 19 26  2  0
 26 27  1  0
 16 28  1  0
 28 29  1  0
  6  4  1  0
 12  7  1  0
 29 14  1  0
 27 17  1  0
 25 20  1  0
M  END
>  <fragInfo>  (1) 
7 8 9 10 11 12
1 2 3 13
4 5 6
14 15 16 28 29
17 18 19 26 27
20 21 22 23 24 25


>  <torsionInfo>  (1) 
6 7 2 0
3 4 1 2
13 14 1 3
16 17 3 4
19 20 4 5


>  <atomInfo>  (1) 
1  -0.2488910OA
2  0.31474364C 
3  -0.3347878N 
4  0.03813214C 
5  -0.0232215C 
6  0.00622061C 
7  -0.0427878A 
8  -0.0586825A 
9  -0.0619824A 
10 -0.0622483A 
11 -0.0619824A 
12 -0.0586825A 
13 -0.3354036N 
14 0.03132282C 
15 -0.0210292C 
16 0.04044497C 
17 0.22970035A 
18 -0.1895648NA
19 0.22050869A 
20 0.11113078A 
21 -0.0323542A 
22 -0.0584502A 
23 -0.0437662A 
24 0.02762940A 
25 -0.2527805NA
26 -0.0554006NA
27 -0.3386227OA
28 -0.0395708C 
29 -0.0319292C 


$$$$
