
     RDKit          3D

 25 28  0  0  0  0  0  0  0  0999 V2000
    0.8364   -0.5140    0.6237 O   0  0  0  0  0  0  0  0  0  0  0  0
    0.5977    0.0272   -0.4790 C   0  0  0  0  0  0  0  0  0  0  0  0
    1.5293   -0.0616   -1.5657 N   0  0  0  0  0  0  0  0  0  0  0  0
    2.7582   -0.8086   -1.2841 C   0  0  1  0  0  0  0  0  0  0  0  0
    3.6418   -0.9150   -2.5446 C   0  0  0  0  0  0  0  0  0  0  0  0
    3.9719    0.1393   -1.5804 C   0  0  2  0  0  0  0  0  0  0  0  0
    5.0946   -0.0191   -0.6347 C   0  0  0  0  0  0  0  0  0  0  0  0
    5.4648   -1.2941   -0.2620 C   0  0  0  0  0  0  0  0  0  0  0  0
    6.5021   -1.4904    0.6186 C   0  0  0  0  0  0  0  0  0  0  0  0
    7.1594   -0.4084    1.1184 C   0  0  0  0  0  0  0  0  0  0  0  0
    6.8030    0.8719    0.7568 C   0  0  0  0  0  0  0  0  0  0  0  0
    5.7718    1.0848   -0.1195 C   0  0  0  0  0  0  0  0  0  0  0  0
   -0.6298    0.7276   -0.5971 N   0  0  0  0  0  0  0  0  0  0  0  0
   -1.5741    0.8288    0.4728 C   0  0  0  0  0  0  0  0  0  0  0  0
   -2.1277   -0.4475    0.9762 C   0  0  1  0  0  0  0  0  0  0  0  0
   -2.7777   -0.3672    2.3226 C   0  0  0  0  0  0  0  0  0  0  0  0
   -4.1560    0.2450    2.1884 C   0  0  0  0  0  0  0  0  0  0  0  0
   -4.2946    1.3050    1.4556 N   0  0  0  0  0  0  0  0  0  0  0  0
   -5.6227    1.8409    1.3588 C   0  0  0  0  0  0  0  0  0  0  0  0
   -6.0173    1.7085   -0.0650 C   0  0  0  0  0  0  0  0  0  0  0  0
   -5.6090    0.6634   -0.7206 C   0  0  0  0  0  0  0  0  0  0  0  0
   -5.4486   -0.2388   -1.8660 C   0  0  0  0  0  0  0  0  0  0  0  0
   -4.9142   -0.4573   -0.6020 C   0  0  0  0  0  0  0  0  0  0  0  0
   -4.1524   -1.2206    0.3780 C   0  0  0  0  0  0  0  0  0  0  0  0
   -2.8068   -1.1996    0.0510 O   0  0  0  0  0  0  0  0  0  0  0  0
  1  2  2  0
  2  3  1  0
  4  3  1  6
  4  5  1  0
  5  6  1  0
  6  7  1  1
  7  8  2  0
  8  9  1  0
  9 10  2  0
 10 11  1  0
 11 12  2  0
  2 13  1  0
 13 14  1  0
 15 14  1  6
 15 16  1  0
 16 17  1  0
 17 18  2  3
 18 19  1  0
 19 20  1  0
 20 21  2  3
 21 22  1  0
 22 23  2  0
 23 24  1  0
 24 25  1  0
  6  4  1  0
 12  7  1  0
 25 15  1  0
 23 21  1  0
M  END
>  <fragInfo>  (1) 
15 16 17 18 19 20 21 22 23 24 25
1 2 3 13
4 5 6
7 8 9 10 11 12
14


>  <torsionInfo>  (1) 
14 15 4 0
3 4 1 2
13 14 1 4
6 7 2 3


>  <atomInfo>  (1) 
1  -0.2488983OA
2  0.31461803C 
3  -0.3347934N 
4  0.03813202C 
5  -0.0232215C 
6  0.00622061C 
7  -0.0427878A 
8  -0.0586825A 
9  -0.0619824A 
10 -0.0622483A 
11 -0.0619824A 
12 -0.0586825A 
13 -0.3355375N 
14 0.04585578C 
15 0.08022775C 
16 0.01036327C 
17 0.00171464C 
18 -0.2932813NA
19 0.05747842C 
20 -0.0556011C 
21 -0.0218926C 
22 -0.0487386C 
23 -0.0147374C 
24 0.07271391C 
25 -0.3713034OA


$$$$
