
     RDKit          3D

 27 30  0  0  0  0  0  0  0  0999 V2000
   -1.2824   -0.5081   -0.5791 O   0  0  0  0  0  0  0  0  0  0  0  0
   -1.4285   -0.7322    0.6327 C   0  0  0  0  0  0  0  0  0  0  0  0
   -2.5498   -0.1087    1.2522 N   0  0  0  0  0  0  0  0  0  0  0  0
   -3.4287    0.7493    0.4701 C   0  0  2  0  0  0  0  0  0  0  0  0
   -3.8731    2.0543    0.9312 C   0  0  0  0  0  0  0  0  0  0  0  0
   -4.8073    0.9302    1.1118 C   0  0  1  0  0  0  0  0  0  0  0  0
   -5.8820    0.6502    0.1145 C   0  0  0  0  0  0  0  0  0  0  0  0
   -6.3161    1.5529   -0.8222 C   0  0  0  0  0  0  0  0  0  0  0  0
   -7.3075    1.2088   -1.7373 C   0  0  0  0  0  0  0  0  0  0  0  0
   -7.8760   -0.0387   -1.7283 C   0  0  0  0  0  0  0  0  0  0  0  0
   -7.4450   -0.9557   -0.7855 C   0  0  0  0  0  0  0  0  0  0  0  0
   -6.4526   -0.6037    0.1272 C   0  0  0  0  0  0  0  0  0  0  0  0
   -0.4886   -1.5785    1.3419 N   0  0  0  0  0  0  0  0  0  0  0  0
    0.5818   -2.0933    0.5419 C   0  0  0  0  0  0  0  0  0  0  0  0
    1.5305   -2.9085    1.3794 C   0  0  0  0  0  0  0  0  0  0  0  0
    2.6801   -3.3962    0.4345 C   0  0  0  0  0  0  0  0  0  0  0  0
    3.2439   -2.1215   -0.1272 C   0  0  0  0  0  0  0  0  0  0  0  0
    4.2256   -1.3243    0.2831 N   0  0  0  0  0  0  0  0  0  0  0  0
    4.3092   -0.3005   -0.5925 C   0  0  0  0  0  0  0  0  0  0  0  0
    5.2212    0.8466   -0.5820 C   0  0  0  0  0  0  0  0  0  0  0  0
    5.1175    1.8453   -1.5376 C   0  0  0  0  0  0  0  0  0  0  0  0
    5.9565    2.9292   -1.5458 C   0  0  0  0  0  0  0  0  0  0  0  0
    6.9231    3.0276   -0.5841 C   0  0  0  0  0  0  0  0  0  0  0  0
    7.0574    2.0509    0.3863 C   0  0  0  0  0  0  0  0  0  0  0  0
    6.1880    0.9589    0.3688 C   0  0  0  0  0  0  0  0  0  0  0  0
    3.3599   -0.5234   -1.5218 N   0  0  0  0  0  0  0  0  0  0  0  0
    2.7429   -1.6108   -1.2205 O   0  0  0  0  0  0  0  0  0  0  0  0
  1  2  2  0
  2  3  1  0
  4  3  1  1
  4  5  1  0
  5  6  1  0
  6  7  1  6
  7  8  2  0
  8  9  1  0
  9 10  2  0
 10 11  1  0
 11 12  2  0
  2 13  1  0
 13 14  1  0
 14 15  1  0
 15 16  1  0
 16 17  1  0
 17 18  2  0
 18 19  1  0
 19 20  1  0
 20 21  2  0
 21 22  1  0
 22 23  2  0
 23 24  1  0
 24 25  2  0
 19 26  2  0
 26 27  1  0
  6  4  1  0
 12  7  1  0
 27 17  1  0
 25 20  1  0
M  END
>  <fragInfo>  (1) 
7 8 9 10 11 12
1 2 3 13
4 5 6
14
15
16
17 18 19 26 27
20 21 22 23 24 25


>  <torsionInfo>  (1) 
6 7 2 0
3 4 1 2
13 14 1 3
14 15 3 4
15 16 4 5
16 17 5 6
19 20 6 7


>  <atomInfo>  (1) 
1  -0.2489001OA
2  0.31452706C 
3  -0.3347948N 
4  0.03813201C 
5  -0.0232215C 
6  0.00622061C 
7  -0.0427878A 
8  -0.0586825A 
9  -0.0619824A 
10 -0.0622483A 
11 -0.0619824A 
12 -0.0586825A 
13 -0.3381441N 
14 0.01961045C 
15 -0.0268123C 
16 0.02864830C 
17 0.22652701A 
18 -0.1912227NA
19 0.20190404A 
20 0.02273286A 
21 -0.0510656A 
22 -0.0615338A 
23 -0.0622215A 
24 -0.0615338A 
25 -0.0510656A 
26 -0.0571443NA
27 -0.3389952OA


$$$$
