
     RDKit          3D

 11 11  0  0  0  0  0  0  0  0999 V2000
    3.4668    0.5878    0.7428 O   0  0  0  0  0  0  0  0  0  0  0  0
    2.9281   -0.1790   -0.1088 C   0  0  0  0  0  0  0  0  0  0  0  0
    1.5273   -0.4834    0.0615 N   0  0  0  0  0  0  0  0  0  0  0  0
    0.8707    0.1096    1.1798 C   0  0  0  0  0  0  0  0  0  0  0  0
   -0.4115    0.4709    1.2394 C   0  0  0  0  0  0  0  0  0  0  0  0
   -1.4629    0.3701    0.2299 C   0  0  0  0  0  0  0  0  0  0  0  0
   -2.6973    0.6825    0.5990 C   0  0  0  0  0  0  0  0  0  0  0  0
   -3.6656    0.5904   -0.3281 F   0  0  0  0  0  0  0  0  0  0  0  0
    0.9296   -1.3513   -0.9074 C   0  0  0  0  0  0  0  0  0  0  0  0
   -0.2465   -0.7557   -1.5899 C   0  0  0  0  0  0  0  0  0  0  0  0
   -1.2389   -0.0417   -1.1183 N   0  0  0  0  0  0  0  0  0  0  0  0
  1  2  2  0
  2  3  1  0
  3  4  1  0
  4  5  2  0
  5  6  1  0
  6  7  2  3
  7  8  1  0
  3  9  1  0
  9 10  1  0
 10 11  2  0
 11  6  1  0
M  END
>  <fragInfo>  (1) 
3 4 5 6 7 8 9 10 11
1 2


>  <torsionInfo>  (1) 
2 3 1 0


>  <atomInfo>  (1) 
1  -0.2783056OA
2  0.21350920C 
3  -0.3162066N 
4  0.00914456C 
5  -0.0176613C 
6  0.09228501C 
7  0.11233704C 
8  -0.2131721F 
9  0.06029919C 
10 0.02495225C 
11 -0.2568802NA


$$$$
