
     RDKit          3D

 22 23  0  0  0  0  0  0  0  0999 V2000
    2.0426   -2.5570    1.8885 O   0  0  0  0  0  0  0  0  0  0  0  0
    1.5449   -2.1819    0.7800 C   0  0  0  0  0  0  0  0  0  0  0  0
    0.1787   -2.3856    0.6041 N   0  0  0  0  0  0  0  0  0  0  0  0
   -0.7996   -1.5133    0.0689 C   0  0  0  0  0  0  0  0  0  0  0  0
   -1.7150   -2.0326   -0.8277 C   0  0  0  0  0  0  0  0  0  0  0  0
   -2.7109   -1.3000   -1.4171 C   0  0  0  0  0  0  0  0  0  0  0  0
   -3.8559   -1.9898   -2.5505 Cl  0  0  0  0  0  0  0  0  0  0  0  0
   -2.8210    0.0240   -1.1126 C   0  0  0  0  0  0  0  0  0  0  0  0
   -1.9279    0.5830   -0.2223 C   0  0  0  0  0  0  0  0  0  0  0  0
   -2.1172    2.2880    0.1324 Cl  0  0  0  0  0  0  0  0  0  0  0  0
   -0.9115   -0.1744    0.3764 C   0  0  0  0  0  0  0  0  0  0  0  0
    2.4309   -1.5966   -0.1598 N   0  0  0  0  0  0  0  0  0  0  0  0
    1.9758   -0.5987   -1.1409 C   0  0  0  0  0  0  0  0  0  0  0  0
    3.2026    0.2091   -1.5099 C   0  0  0  0  0  0  0  0  0  0  0  0
    3.0579    1.6688   -1.1622 C   0  0  0  0  0  0  0  0  0  0  0  0
    1.5574    1.9156   -0.2987 S   0  0  0  0  0  0  0  0  0  0  0  0
    1.3446    0.7755    0.8610 C   0  0  0  0  0  0  0  0  0  0  0  0
   -0.0435    0.5578    1.2991 C   0  0  1  0  0  0  0  0  0  0  0  0
   -0.7113    1.7266    1.8767 C   0  0  0  0  0  0  0  0  0  0  0  0
   -0.9055    1.9105    3.0607 O   0  0  0  0  0  0  0  0  0  0  0  0
    0.2523    1.1930   -1.8858 F   0  0  0  0  0  0  0  0  0  0  0  0
    0.9317    3.4779   -0.2822 F   0  0  0  0  0  0  0  0  0  0  0  0
  1  2  2  0
  2  3  1  0
  3  4  1  0
  4  5  2  0
  5  6  1  0
  6  7  1  0
  6  8  2  0
  8  9  1  0
  9 10  1  0
  9 11  2  0
  2 12  1  0
 12 13  1  0
 13 14  1  0
 14 15  1  0
 15 16  1  0
 16 17  1  0
 17 18  1  0
 18 19  1  6
 19 20  2  0
 16 21  1  0
 16 22  1  0
 11  4  1  0
 18 11  1  0
M  END
>  <fragInfo>  (1) 
1 2 3 4 5 6 7 8 9 10 11 12 13 14 15 16 17 18 21 22
19 20


>  <torsionInfo>  (1) 
18 19 0 1


>  <atomInfo>  (1) 
1  -0.2485082OA
2  0.31874617C 
3  -0.3076061N 
4  0.04929481A 
5  -0.0193428A 
6  0.04412029A 
7  -0.0842076Cl
8  -0.0243414A 
9  0.04806367A 
10 -0.0838786Cl
11 0.00556961A 
12 -0.3378353N 
13 0.02003238C 
14 -0.0233009C 
15 0.03281365C 
16 0.05838413S 
17 0.04478935C 
18 0.05536957C 
19 0.12803740C 
20 -0.3026743OA
21 -0.1578561F 
22 -0.1578561F 


$$$$
