
     RDKit          3D

 24 26  0  0  0  0  0  0  0  0999 V2000
    1.1703   -0.9496    1.8433 O   0  0  0  0  0  0  0  0  0  0  0  0
    0.9810   -0.6788    0.6304 C   0  0  0  0  0  0  0  0  0  0  0  0
   -0.2269   -0.5387   -0.1219 N   0  0  0  0  0  0  0  0  0  0  0  0
   -1.5360   -1.0661    0.0259 C   0  0  0  0  0  0  0  0  0  0  0  0
   -1.7031   -2.2782    0.6507 C   0  0  0  0  0  0  0  0  0  0  0  0
   -2.9614   -2.8145    0.8090 C   0  0  0  0  0  0  0  0  0  0  0  0
   -4.0823   -2.1555    0.3485 C   0  0  0  0  0  0  0  0  0  0  0  0
   -5.3037   -2.7139    0.5219 F   0  0  0  0  0  0  0  0  0  0  0  0
   -3.9178   -0.9265   -0.2855 C   0  0  0  0  0  0  0  0  0  0  0  0
   -5.3477   -0.0833   -0.8741 Cl  0  0  0  0  0  0  0  0  0  0  0  0
   -2.6517   -0.4085   -0.4335 C   0  0  0  0  0  0  0  0  0  0  0  0
    0.4691    0.3222   -1.0220 C   0  0  1  0  0  0  0  0  0  0  0  0
    0.4528    1.7671   -0.6041 C   0  0  0  0  0  0  0  0  0  0  0  0
    0.1935    2.7636   -1.4977 C   0  0  0  0  0  0  0  0  0  0  0  0
    0.1787    4.0857   -1.1170 C   0  0  0  0  0  0  0  0  0  0  0  0
    0.4333    4.4156    0.2059 C   0  0  0  0  0  0  0  0  0  0  0  0
    0.6949    3.3825    1.0981 C   0  0  0  0  0  0  0  0  0  0  0  0
    0.6968    2.1089    0.6731 N   0  0  0  0  0  0  0  0  0  0  0  0
    1.7400   -0.3804   -0.5970 C   0  0  1  0  0  0  0  0  0  0  0  0
    2.8572    0.6011   -0.4597 C   0  0  0  0  0  0  0  0  0  0  0  0
    3.9258    0.1964    0.5012 C   0  0  0  0  0  0  0  0  0  0  0  0
    4.5878   -1.0310    0.1658 N   0  0  0  0  0  0  0  0  0  0  0  0
    3.5976   -2.4143    0.0714 Cl  0  0  0  0  0  0  0  0  0  0  0  0
    5.7519   -1.2037    0.7852 F   0  0  0  0  0  0  0  0  0  0  0  0
  1  2  2  0
  2  3  1  0
  3  4  1  0
  4  5  2  0
  5  6  1  0
  6  7  2  0
  7  8  1  0
  7  9  1  0
  9 10  1  0
  9 11  2  0
  3 12  1  0
 12 13  1  1
 13 14  2  0
 14 15  1  0
 15 16  2  0
 16 17  1  0
 17 18  2  0
 12 19  1  0
 19 20  1  1
 20 21  1  0
 21 22  1  0
 22 23  1  0
 22 24  1  0
 19  2  1  0
 11  4  1  0
 18 13  1  0
M  END
>  <fragInfo>  (1) 
4 5 6 7 8 9 10 11
1 2 3 12 19
13 14 15 16 17 18
20
21
22 23 24


>  <torsionInfo>  (1) 
3 4 1 0
12 13 1 2
19 20 1 3
20 21 3 4
21 22 4 5


>  <atomInfo>  (1) 
1  -0.2740676OA
2  0.23281057C 
3  -0.3021693N 
4  0.04611626A 
5  -0.0352702A 
6  -0.0226871A 
7  0.14143861A 
8  -0.2053590F 
9  0.07835147A 
10 -0.0810568Cl
11 -0.0165781A 
12 0.09058986C 
13 0.06411120A 
14 -0.0383809A 
15 -0.0588459A 
16 -0.0437944A 
17 0.02716004A 
18 -0.2590632NA
19 0.06642766C 
20 -0.0222576C 
21 0.04690910C 
22 -0.0555888NA
23 0.01101849Cl
24 -0.1175633F 


$$$$
