
     RDKit          3D

 11 11  0  0  0  0  0  0  0  0999 V2000
   -3.5669    0.7494   -0.4295 O   0  0  0  0  0  0  0  0  0  0  0  0
   -2.9427   -0.1487    0.1673 C   0  0  0  0  0  0  0  0  0  0  0  0
   -1.5337   -0.1011    0.4199 N   0  0  0  0  0  0  0  0  0  0  0  0
   -0.9071    1.0656   -0.0721 C   0  0  0  0  0  0  0  0  0  0  0  0
    0.3867    1.2327   -0.2628 C   0  0  0  0  0  0  0  0  0  0  0  0
    1.4716    0.2625   -0.0142 C   0  0  0  0  0  0  0  0  0  0  0  0
    2.6602    0.8071   -0.1853 C   0  0  0  0  0  0  0  0  0  0  0  0
    3.8256    0.1491   -0.0242 F   0  0  0  0  0  0  0  0  0  0  0  0
   -1.0610   -1.2564    1.1226 C   0  0  0  0  0  0  0  0  0  0  0  0
    0.3009   -1.6623    0.8222 C   0  0  0  0  0  0  0  0  0  0  0  0
    1.3663   -1.0980    0.3630 N   0  0  0  0  0  0  0  0  0  0  0  0
  1  2  2  0
  2  3  1  0
  3  4  1  0
  4  5  2  0
  5  6  1  0
  6  7  2  3
  7  8  1  0
  3  9  1  0
  9 10  1  0
 10 11  2  0
 11  6  1  0
M  END
>  <fragInfo>  (1) 
3 4 5 6 7 8 9 10 11
1 2


>  <torsionInfo>  (1) 
2 3 1 0


>  <atomInfo>  (1) 
1  -0.2783056OA
2  0.21350920C 
3  -0.3162066N 
4  0.00914456C 
5  -0.0176613C 
6  0.09228501C 
7  0.11233704C 
8  -0.2131721F 
9  0.06029919C 
10 0.02495225C 
11 -0.2568802NA


$$$$
