
     RDKit          3D

 11 11  0  0  0  0  0  0  0  0999 V2000
   -3.3848    0.8314    0.5846 O   0  0  0  0  0  0  0  0  0  0  0  0
   -2.8369   -0.2658    0.2934 C   0  0  0  0  0  0  0  0  0  0  0  0
   -1.4929   -0.3263   -0.1767 N   0  0  0  0  0  0  0  0  0  0  0  0
   -0.8134    0.9169   -0.2961 C   0  0  0  0  0  0  0  0  0  0  0  0
    0.4918    1.1301   -0.3138 C   0  0  0  0  0  0  0  0  0  0  0  0
    1.5547    0.1340   -0.2143 C   0  0  0  0  0  0  0  0  0  0  0  0
    2.8037    0.5578   -0.4433 C   0  0  0  0  0  0  0  0  0  0  0  0
    2.9876    1.8617   -0.7466 F   0  0  0  0  0  0  0  0  0  0  0  0
   -1.0392   -1.6544   -0.4568 C   0  0  0  0  0  0  0  0  0  0  0  0
    0.3226   -1.9380   -0.0142 C   0  0  0  0  0  0  0  0  0  0  0  0
    1.4066   -1.2475    0.1019 N   0  0  0  0  0  0  0  0  0  0  0  0
  1  2  2  0
  2  3  1  0
  3  4  1  0
  4  5  2  0
  5  6  1  0
  6  7  2  3
  7  8  1  0
  3  9  1  0
  9 10  1  0
 10 11  2  0
 11  6  1  0
M  END
>  <fragInfo>  (1) 
3 4 5 6 7 8 9 10 11
1 2


>  <torsionInfo>  (1) 
2 3 1 0


>  <atomInfo>  (1) 
1  -0.2783056OA
2  0.21350920C 
3  -0.3162066N 
4  0.00914456C 
5  -0.0176613C 
6  0.09228501C 
7  0.11233704C 
8  -0.2131721F 
9  0.06029919C 
10 0.02495225C 
11 -0.2568802NA


$$$$
