
     RDKit          3D

 21 23  0  0  0  0  0  0  0  0999 V2000
   -0.3093   -3.6578   -1.1721 O   0  0  0  0  0  0  0  0  0  0  0  0
   -0.1833   -2.4857   -0.7422 C   0  0  0  0  0  0  0  0  0  0  0  0
   -1.2685   -1.6057   -1.0198 N   0  0  0  0  0  0  0  0  0  0  0  0
   -1.7477   -0.4116   -0.3622 C   0  0  0  0  0  0  0  0  0  0  0  0
   -3.0628   -0.2677   -0.6739 C   0  0  0  0  0  0  0  0  0  0  0  0
   -3.7508    0.8113   -0.1580 C   0  0  0  0  0  0  0  0  0  0  0  0
   -5.4665    1.0507   -0.5298 Cl  0  0  0  0  0  0  0  0  0  0  0  0
   -3.0926    1.7134    0.6570 C   0  0  0  0  0  0  0  0  0  0  0  0
   -1.7598    1.5934    0.9904 C   0  0  0  0  0  0  0  0  0  0  0  0
   -1.1042    2.4728    1.7896 F   0  0  0  0  0  0  0  0  0  0  0  0
   -1.0920    0.4900    0.4517 C   0  0  0  0  0  0  0  0  0  0  0  0
    1.0325   -2.2557   -0.0518 N   0  0  0  0  0  0  0  0  0  0  0  0
    1.8398   -1.3322    0.6070 C   0  0  1  0  0  0  0  0  0  0  0  0
    3.2661   -1.4010    0.0417 C   0  0  0  0  0  0  0  0  0  0  0  0
    3.4869   -0.1124   -0.7006 C   0  0  1  0  0  0  0  0  0  0  0  0
    2.1281    0.5599   -0.7298 C   0  0  0  0  0  0  0  0  0  0  0  0
    1.5556    0.0865    0.5798 C   0  0  1  0  0  0  0  0  0  0  0  0
    0.2713    0.6060    0.9539 C   0  0  0  0  0  0  0  0  0  0  0  0
    0.3406    1.3585    1.9855 O   0  0  0  0  0  0  0  0  0  0  0  0
    4.3916    0.8185    0.1103 C   0  0  0  0  0  0  0  0  0  0  0  0
    4.5250    1.9686   -0.6673 F   0  0  0  0  0  0  0  0  0  0  0  0
  1  2  2  0
  2  3  1  0
  3  4  1  0
  4  5  2  0
  5  6  1  0
  6  7  1  0
  6  8  2  0
  8  9  1  0
  9 10  1  0
  9 11  2  0
  2 12  1  0
 12 13  1  0
 13 14  1  6
 14 15  1  0
 15 16  1  0
 17 16  1  6
 17 18  1  0
 18 19  2  0
 15 20  1  1
 20 21  1  0
 11  4  1  0
 18 11  1  0
 17 13  1  0
M  END
>  <fragInfo>  (1) 
1 2 3 4 5 6 7 8 9 10 11 12 13 14 15 16 17 18 19
20 21


>  <torsionInfo>  (1) 
15 20 0 1


>  <atomInfo>  (1) 
1  -0.2484985OA
2  0.31899805C 
3  -0.3071076N 
4  0.05764969A 
5  -0.0187955A 
6  0.04557694A 
7  -0.0841525Cl
8  -0.0066929A 
9  0.13710445A 
10 -0.2060665F 
11 0.07736468A 
12 -0.3343843N 
13 0.04101181C 
14 -0.0266232C 
15 -0.0100666C 
16 -0.0357128C 
17 0.04324403C 
18 0.17255513C 
19 -0.2935905OA
20 0.09231332C 
21 -0.2508011F 


$$$$
