
     RDKit          3D

 11 11  0  0  0  0  0  0  0  0999 V2000
    3.7483   -0.4391    0.2576 O   0  0  0  0  0  0  0  0  0  0  0  0
    2.6930   -0.9549   -0.1595 C   0  0  0  0  0  0  0  0  0  0  0  0
    1.4011   -0.4164    0.0898 N   0  0  0  0  0  0  0  0  0  0  0  0
    0.3539   -1.2082   -0.5058 C   0  0  0  0  0  0  0  0  0  0  0  0
   -0.9414   -0.8684   -0.6269 C   0  0  0  0  0  0  0  0  0  0  0  0
   -1.5844    0.3628   -0.1913 C   0  0  0  0  0  0  0  0  0  0  0  0
   -2.8891    0.3018   -0.0143 C   0  0  0  0  0  0  0  0  0  0  0  0
   -3.5101   -0.8699   -0.2458 F   0  0  0  0  0  0  0  0  0  0  0  0
    1.3456    0.7725    0.8574 C   0  0  0  0  0  0  0  0  0  0  0  0
    0.3025    1.7232    0.4880 C   0  0  0  0  0  0  0  0  0  0  0  0
   -0.9195    1.5965    0.0508 N   0  0  0  0  0  0  0  0  0  0  0  0
  1  2  2  0
  2  3  1  0
  3  4  1  0
  4  5  2  0
  5  6  1  0
  6  7  2  3
  7  8  1  0
  3  9  1  0
  9 10  1  0
 10 11  2  0
 11  6  1  0
M  END
>  <fragInfo>  (1) 
3 4 5 6 7 8 9 10 11
1 2


>  <torsionInfo>  (1) 
2 3 1 0


>  <atomInfo>  (1) 
1  -0.2783056OA
2  0.21350920C 
3  -0.3162066N 
4  0.00914456C 
5  -0.0176613C 
6  0.09228501C 
7  0.11233704C 
8  -0.2131721F 
9  0.06029919C 
10 0.02495225C 
11 -0.2568802NA


$$$$
