
     RDKit          3D

 14 14  0  0  0  0  0  0  0  0999 V2000
   -2.3444   -1.1306    1.1531 C   0  0  0  0  0  0  0  0  0  0  0  0
   -1.8810   -1.5857   -0.1093 O   0  0  0  0  0  0  0  0  0  0  0  0
   -2.3950   -1.1831   -1.3345 C   0  0  0  0  0  0  0  0  0  0  0  0
   -2.8444    0.0229   -1.6456 C   0  0  0  0  0  0  0  0  0  0  0  0
   -2.9052    1.2006   -0.7847 C   0  0  0  0  0  0  0  0  0  0  0  0
   -2.5363    1.2647    0.4988 C   0  0  0  0  0  0  0  0  0  0  0  0
   -1.9917    0.2915    1.4305 C   0  0  2  0  0  0  0  0  0  0  0  0
   -0.5245    0.4087    1.6824 C   0  0  0  0  0  0  0  0  0  0  0  0
    0.1675   -0.0542    0.4981 N   0  0  0  0  0  0  0  0  0  0  0  0
    1.6248    0.0372    0.6856 C   0  0  0  0  0  0  0  0  0  0  0  0
    2.2183   -0.4729   -0.6145 C   0  0  0  0  0  0  0  0  0  0  0  0
    3.7045   -0.4629   -0.6328 C   0  0  0  0  0  0  0  0  0  0  0  0
    4.2930    0.8132   -0.4544 N   0  0  0  0  0  0  0  0  0  0  0  0
    5.4143    0.8507   -0.0086 O   0  0  0  0  0  0  0  0  0  0  0  0
  1  2  1  0
  2  3  1  0
  3  4  2  0
  4  5  1  0
  5  6  2  0
  6  7  1  0
  7  8  1  6
  8  9  1  0
  9 10  1  0
 10 11  1  0
 11 12  1  0
 12 13  1  0
 13 14  2  0
  7  1  1  0
M  END
>  <fragInfo>  (1) 
1 2 3 4 5 6 7
8
9
10
11
12
13 14


>  <torsionInfo>  (1) 
7 8 0 1
8 9 1 2
9 10 2 3
10 11 3 4
11 12 4 5
12 13 5 6


>  <atomInfo>  (1) 
1  0.09476975C 
2  -0.5005340OA
3  0.08286168C 
4  -0.0278399C 
5  -0.0627734C 
6  -0.0766711C 
7  0.02376432C 
8  0.00470413C 
9  -0.3159441NA
10 -0.0029749C 
11 -0.0174365C 
12 0.08227813C 
13 -0.0699354NA
14 -0.1508230OA


$$$$
