
     RDKit          3D

 67 69  0  0  0  0  0  0  0  0999 V2000
    5.7194    2.3158   -1.4684 C   0  0  0  0  0  0  0  0  0  0  0  0
    4.9813    1.4383   -0.4766 C   0  0  0  0  0  0  0  0  0  0  0  0
    5.0664    0.0287   -0.9626 C   0  0  2  0  0  0  0  0  0  0  0  0
    4.4271   -0.0637   -2.3224 C   0  0  0  0  0  0  0  0  0  0  0  0
    4.4371   -0.8905    0.0514 C   0  0  2  0  0  0  0  0  0  0  0  0
    3.0285   -0.5498    0.2621 N   0  0  0  0  0  0  0  0  0  0  0  0
    2.0102   -1.5145    0.0566 C   0  0  0  0  0  0  0  0  0  0  0  0
    2.3143   -2.6716   -0.3075 O   0  0  0  0  0  0  0  0  0  0  0  0
    0.6591   -1.1783    0.2593 N   0  0  0  0  0  0  0  0  0  0  0  0
   -0.3532   -2.2122    0.0395 C   0  0  0  0  0  0  0  0  0  0  0  0
   -1.6278   -1.7714    0.7275 C   0  0  0  0  0  0  0  0  0  0  0  0
   -2.1864   -0.5524    0.0210 C   0  0  0  0  0  0  0  0  0  0  0  0
   -1.1082    0.4667   -0.1225 C   0  0  0  0  0  0  0  0  0  0  0  0
    0.1608    0.1066    0.6675 C   0  0  0  0  0  0  0  0  0  0  0  0
   -2.8906   -0.8861   -1.2784 C   0  0  0  0  0  0  0  0  0  0  0  0
   -4.1733   -0.5589   -0.6924 N   0  0  0  0  0  0  0  0  0  0  0  0
   -5.0174   -1.7034   -0.5982 C   0  0  0  0  0  0  0  0  0  0  0  0
   -5.2902   -2.2079   -2.0108 C   0  0  0  0  0  0  0  0  0  0  0  0
   -6.3595   -1.4045    0.0273 C   0  0  0  0  0  0  0  0  0  0  0  0
   -3.5172   -0.1099    0.5193 C   0  0  0  0  0  0  0  0  0  0  0  0
   -3.7336    1.3624    0.6467 C   0  0  0  0  0  0  0  0  0  0  0  0
   -3.6124    2.2045   -0.4344 C   0  0  0  0  0  0  0  0  0  0  0  0
   -3.8108    3.5597   -0.3063 C   0  0  0  0  0  0  0  0  0  0  0  0
   -4.1365    4.0950    0.9193 C   0  0  0  0  0  0  0  0  0  0  0  0
   -4.3289    5.4492    1.0232 F   0  0  0  0  0  0  0  0  0  0  0  0
   -4.2605    3.2606    2.0087 C   0  0  0  0  0  0  0  0  0  0  0  0
   -4.0597    1.9050    1.8684 C   0  0  0  0  0  0  0  0  0  0  0  0
    5.1707   -0.6786    1.3409 C   0  0  0  0  0  0  0  0  0  0  0  0
    4.5558   -0.2739    2.3607 O   0  0  0  0  0  0  0  0  0  0  0  0
    6.5215   -0.9143    1.4577 O   0  0  0  0  0  0  0  0  0  0  0  0
    7.2445   -0.7253    2.6578 C   0  0  0  0  0  0  0  0  0  0  0  0
    5.8175    3.3338   -1.0193 H   0  0  0  0  0  0  0  0  0  0  0  0
    5.1110    2.4034   -2.3852 H   0  0  0  0  0  0  0  0  0  0  0  0
    6.7001    1.8657   -1.6972 H   0  0  0  0  0  0  0  0  0  0  0  0
    5.4100    1.5632    0.5327 H   0  0  0  0  0  0  0  0  0  0  0  0
    3.9203    1.7693   -0.5020 H   0  0  0  0  0  0  0  0  0  0  0  0
    6.1496   -0.2684   -1.0277 H   0  0  0  0  0  0  0  0  0  0  0  0
    3.5927    0.6493   -2.3720 H   0  0  0  0  0  0  0  0  0  0  0  0
    5.1947    0.1545   -3.0847 H   0  0  0  0  0  0  0  0  0  0  0  0
    4.1109   -1.1181   -2.4722 H   0  0  0  0  0  0  0  0  0  0  0  0
    4.4706   -1.9475   -0.2576 H   0  0  0  0  0  0  0  0  0  0  0  0
    2.8217    0.4399    0.5737 H   0  0  0  0  0  0  0  0  0  0  0  0
   -0.4832   -2.4575   -1.0138 H   0  0  0  0  0  0  0  0  0  0  0  0
    0.0043   -3.1191    0.5694 H   0  0  0  0  0  0  0  0  0  0  0  0
   -2.3060   -2.6256    0.7230 H   0  0  0  0  0  0  0  0  0  0  0  0
   -1.3869   -1.5283    1.7651 H   0  0  0  0  0  0  0  0  0  0  0  0
   -1.3733    1.4800    0.2473 H   0  0  0  0  0  0  0  0  0  0  0  0
   -0.7862    0.4824   -1.1849 H   0  0  0  0  0  0  0  0  0  0  0  0
    0.8694    0.9141    0.4484 H   0  0  0  0  0  0  0  0  0  0  0  0
   -0.1619    0.1025    1.7373 H   0  0  0  0  0  0  0  0  0  0  0  0
   -2.7565   -1.9729   -1.5108 H   0  0  0  0  0  0  0  0  0  0  0  0
   -2.5835   -0.3054   -2.1527 H   0  0  0  0  0  0  0  0  0  0  0  0
   -4.5741   -2.5561   -0.0488 H   0  0  0  0  0  0  0  0  0  0  0  0
   -6.1882   -1.6517   -2.3711 H   0  0  0  0  0  0  0  0  0  0  0  0
   -5.5315   -3.2973   -1.9499 H   0  0  0  0  0  0  0  0  0  0  0  0
   -4.4251   -2.0111   -2.6796 H   0  0  0  0  0  0  0  0  0  0  0  0
   -6.7749   -2.3660    0.3964 H   0  0  0  0  0  0  0  0  0  0  0  0
   -7.0758   -0.9766   -0.6760 H   0  0  0  0  0  0  0  0  0  0  0  0
   -6.2802   -0.7334    0.9047 H   0  0  0  0  0  0  0  0  0  0  0  0
   -3.8006   -0.6451    1.4365 H   0  0  0  0  0  0  0  0  0  0  0  0
   -3.3598    1.8384   -1.4103 H   0  0  0  0  0  0  0  0  0  0  0  0
   -3.7226    4.2508   -1.1401 H   0  0  0  0  0  0  0  0  0  0  0  0
   -4.5207    3.7046    2.9805 H   0  0  0  0  0  0  0  0  0  0  0  0
   -4.1674    1.2684    2.7640 H   0  0  0  0  0  0  0  0  0  0  0  0
    6.5333   -0.3502    3.4182 H   0  0  0  0  0  0  0  0  0  0  0  0
    7.7273   -1.6908    2.9730 H   0  0  0  0  0  0  0  0  0  0  0  0
    7.9942    0.0754    2.5024 H   0  0  0  0  0  0  0  0  0  0  0  0
  1  2  1  0
  2  3  1  0
  3  4  1  0
  3  5  1  0
  5  6  1  0
  6  7  1  0
  7  8  2  0
  7  9  1  0
  9 10  1  0
 10 11  1  0
 11 12  1  0
 12 13  1  0
 13 14  1  0
 12 15  1  0
 15 16  1  0
 16 17  1  0
 17 18  1  0
 17 19  1  0
 16 20  1  0
 20 21  1  0
 21 22  2  0
 22 23  1  0
 23 24  2  0
 24 25  1  0
 24 26  1  0
 26 27  2  0
  5 28  1  0
 28 29  2  0
 28 30  1  0
 30 31  1  0
 14  9  1  0
 27 21  1  0
 20 12  1  0
  1 32  1  0
  1 33  1  0
  1 34  1  0
  2 35  1  0
  2 36  1  0
  3 37  1  6
  4 38  1  0
  4 39  1  0
  4 40  1  0
  5 41  1  6
  6 42  1  0
 10 43  1  0
 10 44  1  0
 11 45  1  0
 11 46  1  0
 13 47  1  0
 13 48  1  0
 14 49  1  0
 14 50  1  0
 15 51  1  0
 15 52  1  0
 17 53  1  0
 18 54  1  0
 18 55  1  0
 18 56  1  0
 19 57  1  0
 19 58  1  0
 19 59  1  0
 20 60  1  0
 22 61  1  0
 23 62  1  0
 26 63  1  0
 27 64  1  0
 31 65  1  0
 31 66  1  0
 31 67  1  0
M  END
$$$$
