
     RDKit          3D

 67 69  0  0  0  0  0  0  0  0999 V2000
    5.2577   -2.2585   -0.1330 C   0  0  0  0  0  0  0  0  0  0  0  0
    5.0282   -1.2100   -1.1922 C   0  0  0  0  0  0  0  0  0  0  0  0
    5.3833    0.1659   -0.6794 C   0  0  2  0  0  0  0  0  0  0  0  0
    6.8251    0.2223   -0.2767 C   0  0  0  0  0  0  0  0  0  0  0  0
    4.5302    0.6134    0.4705 C   0  0  2  0  0  0  0  0  0  0  0  0
    3.1150    0.6445    0.0642 N   0  0  0  0  0  0  0  0  0  0  0  0
    2.0704    0.1809    0.8900 C   0  0  0  0  0  0  0  0  0  0  0  0
    2.4204   -0.2640    2.0216 O   0  0  0  0  0  0  0  0  0  0  0  0
    0.6990    0.1770    0.5567 N   0  0  0  0  0  0  0  0  0  0  0  0
   -0.2616   -0.3081    1.5329 C   0  0  0  0  0  0  0  0  0  0  0  0
   -1.6701    0.1341    1.1596 C   0  0  0  0  0  0  0  0  0  0  0  0
   -1.9982   -0.5432   -0.1260 C   0  0  0  0  0  0  0  0  0  0  0  0
   -0.9259   -0.3925   -1.1653 C   0  0  0  0  0  0  0  0  0  0  0  0
    0.1463    0.6063   -0.7113 C   0  0  0  0  0  0  0  0  0  0  0  0
   -2.3965   -2.0095    0.1443 C   0  0  0  0  0  0  0  0  0  0  0  0
   -3.8099   -1.5705    0.2410 N   0  0  0  0  0  0  0  0  0  0  0  0
   -4.7309   -2.4959   -0.3316 C   0  0  0  0  0  0  0  0  0  0  0  0
   -5.9724   -1.8947   -0.9202 C   0  0  0  0  0  0  0  0  0  0  0  0
   -5.1392   -3.5004    0.7416 C   0  0  0  0  0  0  0  0  0  0  0  0
   -3.4059   -0.4815   -0.6375 C   0  0  0  0  0  0  0  0  0  0  0  0
   -4.1544    0.7635   -0.5188 C   0  0  0  0  0  0  0  0  0  0  0  0
   -4.5515    1.3672    0.6404 C   0  0  0  0  0  0  0  0  0  0  0  0
   -5.2645    2.5716    0.6482 C   0  0  0  0  0  0  0  0  0  0  0  0
   -5.5993    3.2056   -0.5335 C   0  0  0  0  0  0  0  0  0  0  0  0
   -6.4925    4.7114   -0.5041 Cl  0  0  0  0  0  0  0  0  0  0  0  0
   -5.2056    2.6084   -1.7052 C   0  0  0  0  0  0  0  0  0  0  0  0
   -4.5044    1.4234   -1.7042 C   0  0  0  0  0  0  0  0  0  0  0  0
    4.9117    2.0003    0.8173 C   0  0  0  0  0  0  0  0  0  0  0  0
    4.0852    2.9162    0.7368 O   0  0  0  0  0  0  0  0  0  0  0  0
    6.1970    2.2552    1.2309 O   0  0  0  0  0  0  0  0  0  0  0  0
    6.6788    3.5339    1.5875 C   0  0  0  0  0  0  0  0  0  0  0  0
    6.3472   -2.3744    0.0759 H   0  0  0  0  0  0  0  0  0  0  0  0
    4.8878   -3.2221   -0.5576 H   0  0  0  0  0  0  0  0  0  0  0  0
    4.7784   -2.0232    0.8216 H   0  0  0  0  0  0  0  0  0  0  0  0
    5.7386   -1.4258   -2.0265 H   0  0  0  0  0  0  0  0  0  0  0  0
    4.0170   -1.2242   -1.5997 H   0  0  0  0  0  0  0  0  0  0  0  0
    5.2421    0.9019   -1.5016 H   0  0  0  0  0  0  0  0  0  0  0  0
    7.2958    1.2166   -0.5362 H   0  0  0  0  0  0  0  0  0  0  0  0
    7.4215   -0.5387   -0.8572 H   0  0  0  0  0  0  0  0  0  0  0  0
    6.9751    0.0741    0.8111 H   0  0  0  0  0  0  0  0  0  0  0  0
    4.6419   -0.0058    1.3901 H   0  0  0  0  0  0  0  0  0  0  0  0
    2.8810    1.0226   -0.8653 H   0  0  0  0  0  0  0  0  0  0  0  0
   -0.2371   -1.4149    1.5183 H   0  0  0  0  0  0  0  0  0  0  0  0
    0.0245    0.0875    2.5216 H   0  0  0  0  0  0  0  0  0  0  0  0
   -1.7438    1.2174    1.1470 H   0  0  0  0  0  0  0  0  0  0  0  0
   -2.3183   -0.2728    1.9678 H   0  0  0  0  0  0  0  0  0  0  0  0
   -0.3656   -1.3248   -1.3629 H   0  0  0  0  0  0  0  0  0  0  0  0
   -1.3998   -0.0326   -2.1002 H   0  0  0  0  0  0  0  0  0  0  0  0
    0.8770    0.7398   -1.5036 H   0  0  0  0  0  0  0  0  0  0  0  0
   -0.3824    1.5658   -0.5401 H   0  0  0  0  0  0  0  0  0  0  0  0
   -2.2786   -2.6260   -0.7472 H   0  0  0  0  0  0  0  0  0  0  0  0
   -2.0841   -2.4011    1.1111 H   0  0  0  0  0  0  0  0  0  0  0  0
   -4.1668   -3.0595   -1.1304 H   0  0  0  0  0  0  0  0  0  0  0  0
   -6.5698   -2.7580   -1.3344 H   0  0  0  0  0  0  0  0  0  0  0  0
   -6.5966   -1.4738   -0.0898 H   0  0  0  0  0  0  0  0  0  0  0  0
   -5.8089   -1.1417   -1.6868 H   0  0  0  0  0  0  0  0  0  0  0  0
   -4.8682   -4.5453    0.4357 H   0  0  0  0  0  0  0  0  0  0  0  0
   -6.2389   -3.5122    0.8865 H   0  0  0  0  0  0  0  0  0  0  0  0
   -4.6953   -3.2514    1.7277 H   0  0  0  0  0  0  0  0  0  0  0  0
   -3.3963   -0.9125   -1.6897 H   0  0  0  0  0  0  0  0  0  0  0  0
   -4.3181    0.9088    1.5868 H   0  0  0  0  0  0  0  0  0  0  0  0
   -5.5784    3.0507    1.5707 H   0  0  0  0  0  0  0  0  0  0  0  0
   -5.4703    3.1069   -2.6324 H   0  0  0  0  0  0  0  0  0  0  0  0
   -4.2157    0.9863   -2.6342 H   0  0  0  0  0  0  0  0  0  0  0  0
    7.5641    3.3787    2.2380 H   0  0  0  0  0  0  0  0  0  0  0  0
    6.9067    4.0721    0.6522 H   0  0  0  0  0  0  0  0  0  0  0  0
    5.8687    4.0393    2.1822 H   0  0  0  0  0  0  0  0  0  0  0  0
  1  2  1  0
  2  3  1  0
  3  4  1  0
  3  5  1  0
  5  6  1  0
  6  7  1  0
  7  8  2  0
  7  9  1  0
  9 10  1  0
 10 11  1  0
 11 12  1  0
 12 13  1  0
 13 14  1  0
 12 15  1  0
 15 16  1  0
 16 17  1  0
 17 18  1  0
 17 19  1  0
 16 20  1  0
 20 21  1  0
 21 22  2  0
 22 23  1  0
 23 24  2  0
 24 25  1  0
 24 26  1  0
 26 27  2  0
  5 28  1  0
 28 29  2  0
 28 30  1  0
 30 31  1  0
 14  9  1  0
 27 21  1  0
 20 12  1  0
  1 32  1  0
  1 33  1  0
  1 34  1  0
  2 35  1  0
  2 36  1  0
  3 37  1  6
  4 38  1  0
  4 39  1  0
  4 40  1  0
  5 41  1  1
  6 42  1  0
 10 43  1  0
 10 44  1  0
 11 45  1  0
 11 46  1  0
 13 47  1  0
 13 48  1  0
 14 49  1  0
 14 50  1  0
 15 51  1  0
 15 52  1  0
 17 53  1  0
 18 54  1  0
 18 55  1  0
 18 56  1  0
 19 57  1  0
 19 58  1  0
 19 59  1  0
 20 60  1  0
 22 61  1  0
 23 62  1  0
 26 63  1  0
 27 64  1  0
 31 65  1  0
 31 66  1  0
 31 67  1  0
M  END
$$$$
