
     RDKit          3D

 73 75  0  0  0  0  0  0  0  0999 V2000
   -6.8769   -1.5246    0.0433 C   0  0  0  0  0  0  0  0  0  0  0  0
   -7.5508   -0.2968   -0.4428 C   0  0  0  0  0  0  0  0  0  0  0  0
   -8.1442   -0.5030   -1.8417 C   0  0  0  0  0  0  0  0  0  0  0  0
   -6.8678    0.9984   -0.3008 C   0  0  0  0  0  0  0  0  0  0  0  0
   -5.5744    1.2561   -0.9202 C   0  0  0  0  0  0  0  0  0  0  0  0
   -4.3349    0.5926   -0.5329 C   0  0  0  0  0  0  0  0  0  0  0  0
   -3.7622    0.8038    0.7430 N   0  0  0  0  0  0  0  0  0  0  0  0
   -4.0192    0.0292    1.8668 C   0  0  0  0  0  0  0  0  0  0  0  0
   -4.9529    0.2998    2.8399 C   0  0  0  0  0  0  0  0  0  0  0  0
   -5.1393   -0.5036    3.9372 C   0  0  0  0  0  0  0  0  0  0  0  0
   -4.3763   -1.6230    4.0864 C   0  0  0  0  0  0  0  0  0  0  0  0
   -3.4148   -1.9597    3.1491 C   0  0  0  0  0  0  0  0  0  0  0  0
   -2.4144   -3.4013    3.3165 Cl  0  0  0  0  0  0  0  0  0  0  0  0
   -3.2601   -1.1380    2.0770 C   0  0  0  0  0  0  0  0  0  0  0  0
   -2.5887    2.0887    0.9672 S   0  0  0  0  0  0  0  0  0  0  0  0
   -3.1670    3.4245    0.6958 O   0  0  0  0  0  0  0  0  0  0  0  0
   -2.0489    2.0995    2.3718 O   0  0  0  0  0  0  0  0  0  0  0  0
   -1.2012    1.7326   -0.0797 C   0  0  0  0  0  0  0  0  0  0  0  0
   -1.0126    2.3279   -1.2965 C   0  0  0  0  0  0  0  0  0  0  0  0
    0.0552    2.0293   -2.1161 C   0  0  0  0  0  0  0  0  0  0  0  0
    0.9836    1.0705   -1.6767 C   0  0  0  0  0  0  0  0  0  0  0  0
    0.8362    0.4426   -0.4621 C   0  0  0  0  0  0  0  0  0  0  0  0
    1.7435   -0.5351   -0.0230 N   0  0  0  0  0  0  0  0  0  0  0  0
    3.0030   -0.8569   -0.5496 C   0  0  0  0  0  0  0  0  0  0  0  0
    3.4487   -0.2259   -1.5224 O   0  0  0  0  0  0  0  0  0  0  0  0
    3.8441   -1.9647    0.0350 C   0  0  0  0  0  0  0  0  0  0  0  0
    5.0764   -2.1445   -0.6386 N   0  0  0  0  0  0  0  0  0  0  0  0
    5.0906   -3.0278   -1.8029 C   0  0  0  0  0  0  0  0  0  0  0  0
    6.2530   -1.4857   -0.1916 C   0  0  0  0  0  0  0  0  0  0  0  0
    7.3630   -1.6357   -0.7887 O   0  0  0  0  0  0  0  0  0  0  0  0
    6.2774   -0.6451    0.9131 O   0  0  0  0  0  0  0  0  0  0  0  0
    7.4700   -0.0340    1.3169 C   0  0  0  0  0  0  0  0  0  0  0  0
    8.0185    0.8309    0.2428 C   0  0  0  0  0  0  0  0  0  0  0  0
    7.2651    1.3732   -0.7789 C   0  0  0  0  0  0  0  0  0  0  0  0
    7.8082    2.1690   -1.7679 C   0  0  0  0  0  0  0  0  0  0  0  0
    9.1593    2.4250   -1.7195 C   0  0  0  0  0  0  0  0  0  0  0  0
    9.9689    1.9125   -0.7215 C   0  0  0  0  0  0  0  0  0  0  0  0
    9.3793    1.1268    0.2360 C   0  0  0  0  0  0  0  0  0  0  0  0
   -0.2634    0.7978    0.3077 C   0  0  0  0  0  0  0  0  0  0  0  0
   -7.6878   -2.2714    0.3101 H   0  0  0  0  0  0  0  0  0  0  0  0
   -6.2891   -1.3194    0.9376 H   0  0  0  0  0  0  0  0  0  0  0  0
   -6.2383   -1.9566   -0.7621 H   0  0  0  0  0  0  0  0  0  0  0  0
   -8.5016   -0.2023    0.1976 H   0  0  0  0  0  0  0  0  0  0  0  0
   -8.8528   -1.3567   -1.7268 H   0  0  0  0  0  0  0  0  0  0  0  0
   -7.3989   -0.6267   -2.6199 H   0  0  0  0  0  0  0  0  0  0  0  0
   -8.7581    0.3833   -2.0657 H   0  0  0  0  0  0  0  0  0  0  0  0
   -6.9156    1.2754    0.7945 H   0  0  0  0  0  0  0  0  0  0  0  0
   -7.6002    1.7742   -0.7405 H   0  0  0  0  0  0  0  0  0  0  0  0
   -5.3575    2.3860   -0.8859 H   0  0  0  0  0  0  0  0  0  0  0  0
   -5.7123    1.1405   -2.0585 H   0  0  0  0  0  0  0  0  0  0  0  0
   -3.4974    0.8686   -1.2790 H   0  0  0  0  0  0  0  0  0  0  0  0
   -4.4346   -0.5211   -0.7677 H   0  0  0  0  0  0  0  0  0  0  0  0
   -5.5514    1.2132    2.7099 H   0  0  0  0  0  0  0  0  0  0  0  0
   -5.8776   -0.2492    4.6617 H   0  0  0  0  0  0  0  0  0  0  0  0
   -4.4781   -2.2962    4.9300 H   0  0  0  0  0  0  0  0  0  0  0  0
   -2.5089   -1.4038    1.3425 H   0  0  0  0  0  0  0  0  0  0  0  0
   -1.7286    3.0699   -1.6358 H   0  0  0  0  0  0  0  0  0  0  0  0
    0.1975    2.5112   -3.0820 H   0  0  0  0  0  0  0  0  0  0  0  0
    1.7831    0.8822   -2.3708 H   0  0  0  0  0  0  0  0  0  0  0  0
    1.4435   -1.1144    0.8256 H   0  0  0  0  0  0  0  0  0  0  0  0
    3.2126   -2.8794   -0.0200 H   0  0  0  0  0  0  0  0  0  0  0  0
    4.0074   -1.7930    1.1261 H   0  0  0  0  0  0  0  0  0  0  0  0
    6.1254   -3.2207   -2.0820 H   0  0  0  0  0  0  0  0  0  0  0  0
    4.5866   -3.9895   -1.5790 H   0  0  0  0  0  0  0  0  0  0  0  0
    4.6121   -2.5060   -2.6829 H   0  0  0  0  0  0  0  0  0  0  0  0
    8.2281   -0.8647    1.4416 H   0  0  0  0  0  0  0  0  0  0  0  0
    7.3953    0.4882    2.2893 H   0  0  0  0  0  0  0  0  0  0  0  0
    6.2013    1.1297   -0.7582 H   0  0  0  0  0  0  0  0  0  0  0  0
    7.1830    2.5868   -2.5648 H   0  0  0  0  0  0  0  0  0  0  0  0
    9.6595    3.0395   -2.4604 H   0  0  0  0  0  0  0  0  0  0  0  0
   11.0468    2.1231   -0.6871 H   0  0  0  0  0  0  0  0  0  0  0  0
   10.0067    0.7072    1.0350 H   0  0  0  0  0  0  0  0  0  0  0  0
   -0.3744    0.3094    1.2562 H   0  0  0  0  0  0  0  0  0  0  0  0
  1  2  1  0
  2  3  1  0
  2  4  1  0
  4  5  1  0
  5  6  1  0
  6  7  1  0
  7  8  1  0
  8  9  2  0
  9 10  1  0
 10 11  2  0
 11 12  1  0
 12 13  1  0
 12 14  2  0
  7 15  1  0
 15 16  2  0
 15 17  2  0
 15 18  1  0
 18 19  2  0
 19 20  1  0
 20 21  2  0
 21 22  1  0
 22 23  1  0
 23 24  1  0
 24 25  2  0
 24 26  1  0
 26 27  1  0
 27 28  1  0
 27 29  1  0
 29 30  2  0
 29 31  1  0
 31 32  1  0
 32 33  1  0
 33 34  2  0
 34 35  1  0
 35 36  2  0
 36 37  1  0
 37 38  2  0
 22 39  2  0
 14  8  1  0
 39 18  1  0
 38 33  1  0
  1 40  1  0
  1 41  1  0
  1 42  1  0
  2 43  1  0
  3 44  1  0
  3 45  1  0
  3 46  1  0
  4 47  1  0
  4 48  1  0
  5 49  1  0
  5 50  1  0
  6 51  1  0
  6 52  1  0
  9 53  1  0
 10 54  1  0
 11 55  1  0
 14 56  1  0
 19 57  1  0
 20 58  1  0
 21 59  1  0
 23 60  1  0
 26 61  1  0
 26 62  1  0
 28 63  1  0
 28 64  1  0
 28 65  1  0
 32 66  1  0
 32 67  1  0
 34 68  1  0
 35 69  1  0
 36 70  1  0
 37 71  1  0
 38 72  1  0
 39 73  1  0
M  END
$$$$
