
     RDKit          3D

 54 59  0  0  0  0  0  0  0  0999 V2000
    1.6433    0.7496   -2.5457 O   0  0  0  0  0  0  0  0  0  0  0  0
    1.7361    0.5347   -1.3037 C   0  0  0  0  0  0  0  0  0  0  0  0
    2.7152    0.6014   -0.2948 N   0  0  0  0  0  0  0  0  0  0  0  0
    3.9791    1.2556   -0.1550 C   0  0  0  0  0  0  0  0  0  0  0  0
    4.8623    0.8779    0.8391 C   0  0  0  0  0  0  0  0  0  0  0  0
    6.0836    1.5019    0.9756 C   0  0  0  0  0  0  0  0  0  0  0  0
    6.4157    2.5149    0.1019 C   0  0  0  0  0  0  0  0  0  0  0  0
    7.6097    3.1657    0.1884 F   0  0  0  0  0  0  0  0  0  0  0  0
    5.5527    2.9266   -0.9155 C   0  0  0  0  0  0  0  0  0  0  0  0
    5.9998    4.2235   -2.0193 Cl  0  0  0  0  0  0  0  0  0  0  0  0
    4.3407    2.2734   -1.0142 C   0  0  0  0  0  0  0  0  0  0  0  0
    1.9259   -0.2596    0.5350 C   0  0  0  0  0  0  0  0  0  0  0  0
    2.4027   -1.6657    0.4849 C   0  0  0  0  0  0  0  0  0  0  0  0
    2.7334   -2.3052   -0.6845 C   0  0  0  0  0  0  0  0  0  0  0  0
    3.1786   -3.6117   -0.7433 C   0  0  0  0  0  0  0  0  0  0  0  0
    3.2982   -4.3154    0.4453 C   0  0  0  0  0  0  0  0  0  0  0  0
    2.9628   -3.6600    1.6098 C   0  0  0  0  0  0  0  0  0  0  0  0
    2.5325   -2.3877    1.6324 N   0  0  0  0  0  0  0  0  0  0  0  0
    0.7462    0.0797   -0.3148 C   0  0  0  0  0  0  0  0  0  0  0  0
   -0.0250    1.2368    0.2526 C   0  0  0  0  0  0  0  0  0  0  0  0
   -1.2536    0.7773    1.0099 C   0  0  0  0  0  0  0  0  0  0  0  0
   -2.1048    0.1270    0.0567 N   0  0  0  0  0  0  0  0  0  0  0  0
   -3.5326    0.2501    0.1151 C   0  0  0  0  0  0  0  0  0  0  0  0
   -4.4271   -0.2972   -0.7473 N   0  0  0  0  0  0  0  0  0  0  0  0
   -5.6801    0.0235   -0.3841 C   0  0  0  0  0  0  0  0  0  0  0  0
   -6.9307   -0.2518   -0.8848 C   0  0  0  0  0  0  0  0  0  0  0  0
   -8.0923    0.2267   -0.2882 C   0  0  0  0  0  0  0  0  0  0  0  0
   -7.9814    1.0039    0.8444 C   0  0  0  0  0  0  0  0  0  0  0  0
   -9.4591    1.6145    1.6022 Cl  0  0  0  0  0  0  0  0  0  0  0  0
   -6.7416    1.2932    1.3638 C   0  0  0  0  0  0  0  0  0  0  0  0
   -5.5881    0.8001    0.7457 C   0  0  0  0  0  0  0  0  0  0  0  0
   -4.2754    0.9138    1.0151 N   0  0  0  0  0  0  0  0  0  0  0  0
   -1.5497   -0.6830   -0.9993 C   0  0  0  0  0  0  0  0  0  0  0  0
   -0.1164   -1.0480   -0.7872 C   0  0  0  0  0  0  0  0  0  0  0  0
    4.6144    0.0804    1.5379 H   0  0  0  0  0  0  0  0  0  0  0  0
    6.7569    1.1911    1.7594 H   0  0  0  0  0  0  0  0  0  0  0  0
    3.6620    2.5994   -1.8167 H   0  0  0  0  0  0  0  0  0  0  0  0
    1.8757    0.1520    1.5767 H   0  0  0  0  0  0  0  0  0  0  0  0
    2.6522   -1.7868   -1.6244 H   0  0  0  0  0  0  0  0  0  0  0  0
    3.4271   -4.0772   -1.6804 H   0  0  0  0  0  0  0  0  0  0  0  0
    3.6462   -5.3559    0.4622 H   0  0  0  0  0  0  0  0  0  0  0  0
    3.0574   -4.2137    2.5480 H   0  0  0  0  0  0  0  0  0  0  0  0
   -0.3589    1.8965   -0.5587 H   0  0  0  0  0  0  0  0  0  0  0  0
    0.6106    1.8077    0.9528 H   0  0  0  0  0  0  0  0  0  0  0  0
   -0.9756    0.1000    1.8525 H   0  0  0  0  0  0  0  0  0  0  0  0
   -1.7161    1.6638    1.4801 H   0  0  0  0  0  0  0  0  0  0  0  0
   -7.0420   -0.8685   -1.7854 H   0  0  0  0  0  0  0  0  0  0  0  0
   -9.0686    0.0113   -0.6801 H   0  0  0  0  0  0  0  0  0  0  0  0
   -6.6328    1.8992    2.2508 H   0  0  0  0  0  0  0  0  0  0  0  0
   -3.8915    1.4507    1.8223 H   0  0  0  0  0  0  0  0  0  0  0  0
   -1.7057   -0.1341   -1.9490 H   0  0  0  0  0  0  0  0  0  0  0  0
   -2.1531   -1.6099   -1.0603 H   0  0  0  0  0  0  0  0  0  0  0  0
    0.2895   -1.4037   -1.7557 H   0  0  0  0  0  0  0  0  0  0  0  0
   -0.0081   -1.8892   -0.0727 H   0  0  0  0  0  0  0  0  0  0  0  0
  1  2  2  0
  2  3  1  0
  3  4  1  0
  4  5  2  0
  5  6  1  0
  6  7  2  0
  7  8  1  0
  7  9  1  0
  9 10  1  0
  9 11  2  0
  3 12  1  0
 12 13  1  0
 13 14  2  0
 14 15  1  0
 15 16  2  0
 16 17  1  0
 17 18  2  0
 12 19  1  0
 19 20  1  0
 20 21  1  0
 21 22  1  0
 22 23  1  0
 23 24  2  0
 24 25  1  0
 25 26  2  0
 26 27  1  0
 27 28  2  0
 28 29  1  0
 28 30  1  0
 30 31  2  0
 31 32  1  0
 22 33  1  0
 33 34  1  0
 19  2  1  0
 32 23  1  0
 11  4  1  0
 18 13  1  0
 34 19  1  0
 31 25  1  0
  5 35  1  0
  6 36  1  0
 11 37  1  0
 12 38  1  0
 14 39  1  0
 15 40  1  0
 16 41  1  0
 17 42  1  0
 20 43  1  0
 20 44  1  0
 21 45  1  0
 21 46  1  0
 26 47  1  0
 27 48  1  0
 30 49  1  0
 32 50  1  0
 33 51  1  0
 33 52  1  0
 34 53  1  0
 34 54  1  0
M  END
$$$$
