
     RDKit          3D

 74 77  0  0  0  0  0  0  0  0999 V2000
   -2.4080    3.0009    3.4675 C   0  0  0  0  0  0  0  0  0  0  0  0
   -1.5705    3.5679    2.5524 O   0  0  0  0  0  0  0  0  0  0  0  0
   -1.8697    3.4248    1.2330 C   0  0  0  0  0  0  0  0  0  0  0  0
   -1.8559    1.9923    0.7650 C   0  0  0  0  0  0  0  0  0  0  0  0
   -1.5184    1.1534    1.6287 O   0  0  0  0  0  0  0  0  0  0  0  0
   -2.1970    1.6719   -0.5279 O   0  0  0  0  0  0  0  0  0  0  0  0
   -2.1746    0.3243   -0.9578 C   0  0  2  0  0  0  0  0  0  0  0  0
   -0.7614   -0.1664   -0.8222 C   0  0  0  0  0  0  0  0  0  0  0  0
    0.1889    0.6811   -1.6847 C   0  0  0  0  0  0  0  0  0  0  0  0
    1.5376    0.2055   -1.5453 N   0  0  0  0  0  0  0  0  0  0  0  0
    1.8098   -1.0785   -2.0809 C   0  0  0  0  0  0  0  0  0  0  0  0
    2.1856    0.4837   -0.3179 C   0  0  0  0  0  0  0  0  0  0  0  0
    2.4841    1.9587   -0.1201 C   0  0  0  0  0  0  0  0  0  0  0  0
    3.1758    2.1598    1.2120 C   0  0  0  0  0  0  0  0  0  0  0  0
    4.4521    1.4051    1.2871 C   0  0  0  0  0  0  0  0  0  0  0  0
    5.6652    1.8772    0.9062 N   0  0  0  0  0  0  0  0  0  0  0  0
    6.5983    0.9269    1.1164 C   0  0  0  0  0  0  0  0  0  0  0  0
    7.9453    0.8748    0.9141 C   0  0  0  0  0  0  0  0  0  0  0  0
    8.6575   -0.2558    1.2300 C   0  0  0  0  0  0  0  0  0  0  0  0
    8.0251   -1.3603    1.7576 C   0  0  0  0  0  0  0  0  0  0  0  0
    6.6728   -1.3102    1.9614 C   0  0  0  0  0  0  0  0  0  0  0  0
    5.9602   -0.1791    1.6455 C   0  0  0  0  0  0  0  0  0  0  0  0
    4.6586    0.1528    1.7328 N   0  0  0  0  0  0  0  0  0  0  0  0
   -2.5881    0.2191   -2.4130 C   0  0  0  0  0  0  0  0  0  0  0  0
   -2.5822   -1.1741   -2.9158 C   0  0  0  0  0  0  0  0  0  0  0  0
   -2.6002   -2.2045   -1.8564 C   0  0  0  0  0  0  0  0  0  0  0  0
   -2.3343   -3.5026   -2.2071 C   0  0  0  0  0  0  0  0  0  0  0  0
   -2.3250   -4.5050   -1.2295 C   0  0  0  0  0  0  0  0  0  0  0  0
   -2.0675   -5.8010   -1.5311 F   0  0  0  0  0  0  0  0  0  0  0  0
   -2.5836   -4.1952    0.0970 C   0  0  0  0  0  0  0  0  0  0  0  0
   -2.8490   -2.9006    0.4457 C   0  0  0  0  0  0  0  0  0  0  0  0
   -2.8524   -1.9327   -0.5350 C   0  0  0  0  0  0  0  0  0  0  0  0
   -3.1548   -0.5200   -0.1797 C   0  0  2  0  0  0  0  0  0  0  0  0
   -4.5910   -0.3302   -0.5878 C   0  0  0  0  0  0  0  0  0  0  0  0
   -5.3964   -1.2723    0.3265 C   0  0  0  0  0  0  0  0  0  0  0  0
   -5.1603    1.0182   -0.4287 C   0  0  0  0  0  0  0  0  0  0  0  0
   -3.4515    3.3887    3.3949 H   0  0  0  0  0  0  0  0  0  0  0  0
   -2.4161    1.9145    3.5538 H   0  0  0  0  0  0  0  0  0  0  0  0
   -2.0642    3.3729    4.4775 H   0  0  0  0  0  0  0  0  0  0  0  0
   -1.1008    3.9308    0.6124 H   0  0  0  0  0  0  0  0  0  0  0  0
   -2.8929    3.8246    1.0143 H   0  0  0  0  0  0  0  0  0  0  0  0
   -0.3557   -0.1506    0.1997 H   0  0  0  0  0  0  0  0  0  0  0  0
   -0.5824   -1.1979   -1.1837 H   0  0  0  0  0  0  0  0  0  0  0  0
    0.1020    1.7455   -1.4809 H   0  0  0  0  0  0  0  0  0  0  0  0
   -0.0578    0.5479   -2.7795 H   0  0  0  0  0  0  0  0  0  0  0  0
    0.9016   -1.5649   -2.5291 H   0  0  0  0  0  0  0  0  0  0  0  0
    2.1991   -1.7379   -1.2596 H   0  0  0  0  0  0  0  0  0  0  0  0
    2.5541   -1.0700   -2.9134 H   0  0  0  0  0  0  0  0  0  0  0  0
    1.6238    0.1000    0.5316 H   0  0  0  0  0  0  0  0  0  0  0  0
    3.1765   -0.0211   -0.3332 H   0  0  0  0  0  0  0  0  0  0  0  0
    1.5209    2.5039   -0.0884 H   0  0  0  0  0  0  0  0  0  0  0  0
    3.0936    2.3741   -0.9276 H   0  0  0  0  0  0  0  0  0  0  0  0
    3.3622    3.2462    1.3776 H   0  0  0  0  0  0  0  0  0  0  0  0
    2.5125    1.7926    2.0251 H   0  0  0  0  0  0  0  0  0  0  0  0
    8.4615    1.7221    0.5044 H   0  0  0  0  0  0  0  0  0  0  0  0
    9.7377   -0.2809    1.0616 H   0  0  0  0  0  0  0  0  0  0  0  0
    8.6061   -2.2564    2.0056 H   0  0  0  0  0  0  0  0  0  0  0  0
    6.1757   -2.1724    2.3745 H   0  0  0  0  0  0  0  0  0  0  0  0
    3.9293   -0.4998    2.1031 H   0  0  0  0  0  0  0  0  0  0  0  0
   -1.9940    0.8616   -3.0906 H   0  0  0  0  0  0  0  0  0  0  0  0
   -3.6429    0.6265   -2.5363 H   0  0  0  0  0  0  0  0  0  0  0  0
   -3.5023   -1.3677   -3.5435 H   0  0  0  0  0  0  0  0  0  0  0  0
   -1.7455   -1.3657   -3.6541 H   0  0  0  0  0  0  0  0  0  0  0  0
   -2.1235   -3.8116   -3.2291 H   0  0  0  0  0  0  0  0  0  0  0  0
   -2.5859   -4.9339    0.8760 H   0  0  0  0  0  0  0  0  0  0  0  0
   -3.0612   -2.5722    1.4569 H   0  0  0  0  0  0  0  0  0  0  0  0
   -3.1177   -0.3657    0.9127 H   0  0  0  0  0  0  0  0  0  0  0  0
   -4.7814   -0.7691   -1.6114 H   0  0  0  0  0  0  0  0  0  0  0  0
   -5.2030   -2.3146    0.0305 H   0  0  0  0  0  0  0  0  0  0  0  0
   -6.4812   -1.0366    0.1317 H   0  0  0  0  0  0  0  0  0  0  0  0
   -5.1729   -1.0638    1.3928 H   0  0  0  0  0  0  0  0  0  0  0  0
   -5.8187    1.1151    0.4851 H   0  0  0  0  0  0  0  0  0  0  0  0
   -5.8832    1.2026   -1.2793 H   0  0  0  0  0  0  0  0  0  0  0  0
   -4.4989    1.8733   -0.4199 H   0  0  0  0  0  0  0  0  0  0  0  0
  1  2  1  0
  2  3  1  0
  3  4  1  0
  4  5  2  0
  4  6  1  0
  7  6  1  1
  7  8  1  0
  8  9  1  0
  9 10  1  0
 10 11  1  0
 10 12  1  0
 12 13  1  0
 13 14  1  0
 14 15  1  0
 15 16  2  0
 16 17  1  0
 17 18  2  0
 18 19  1  0
 19 20  2  0
 20 21  1  0
 21 22  2  0
 22 23  1  0
  7 24  1  0
 24 25  1  0
 25 26  1  0
 26 27  2  0
 27 28  1  0
 28 29  1  0
 28 30  2  0
 30 31  1  0
 31 32  2  0
 32 33  1  0
 33 34  1  0
 34 35  1  0
 34 36  1  0
 33  7  1  0
 23 15  1  0
 32 26  1  0
 22 17  1  0
  1 37  1  0
  1 38  1  0
  1 39  1  0
  3 40  1  0
  3 41  1  0
  8 42  1  0
  8 43  1  0
  9 44  1  0
  9 45  1  0
 11 46  1  0
 11 47  1  0
 11 48  1  0
 12 49  1  0
 12 50  1  0
 13 51  1  0
 13 52  1  0
 14 53  1  0
 14 54  1  0
 18 55  1  0
 19 56  1  0
 20 57  1  0
 21 58  1  0
 23 59  1  0
 24 60  1  0
 24 61  1  0
 25 62  1  0
 25 63  1  0
 27 64  1  0
 30 65  1  0
 31 66  1  0
 33 67  1  1
 34 68  1  0
 35 69  1  0
 35 70  1  0
 35 71  1  0
 36 72  1  0
 36 73  1  0
 36 74  1  0
M  END
$$$$
