
     RDKit          3D

 67 69  0  0  0  0  0  0  0  0999 V2000
    6.3378   -1.9690   -0.9992 C   0  0  0  0  0  0  0  0  0  0  0  0
    5.9588   -0.7350   -1.7779 C   0  0  0  0  0  0  0  0  0  0  0  0
    4.5883   -0.2348   -1.4486 C   0  0  2  0  0  0  0  0  0  0  0  0
    4.3067    0.9971   -2.2782 C   0  0  0  0  0  0  0  0  0  0  0  0
    4.3865    0.0315    0.0247 C   0  0  2  0  0  0  0  0  0  0  0  0
    3.0099    0.5080    0.1689 N   0  0  0  0  0  0  0  0  0  0  0  0
    2.0190   -0.2543    0.8565 C   0  0  0  0  0  0  0  0  0  0  0  0
    2.4185   -1.3563    1.3223 O   0  0  0  0  0  0  0  0  0  0  0  0
    0.6921    0.1524    1.0243 N   0  0  0  0  0  0  0  0  0  0  0  0
    0.1100    1.3920    0.5497 C   0  0  0  0  0  0  0  0  0  0  0  0
   -0.9986    0.9882   -0.3974 C   0  0  0  0  0  0  0  0  0  0  0  0
   -2.0606    0.1861    0.3156 C   0  0  0  0  0  0  0  0  0  0  0  0
   -1.6483   -0.1494    1.6868 C   0  0  0  0  0  0  0  0  0  0  0  0
   -0.2292   -0.7172    1.7294 C   0  0  0  0  0  0  0  0  0  0  0  0
   -2.4762   -1.0046   -0.5756 C   0  0  0  0  0  0  0  0  0  0  0  0
   -3.5880   -0.2910   -0.9248 N   0  0  0  0  0  0  0  0  0  0  0  0
   -4.6216   -0.5065   -1.7595 C   0  0  0  0  0  0  0  0  0  0  0  0
   -4.1098   -0.6217   -3.2069 C   0  0  0  0  0  0  0  0  0  0  0  0
   -5.5171   -1.6937   -1.5332 C   0  0  0  0  0  0  0  0  0  0  0  0
   -3.4481    0.6860    0.0772 C   0  0  0  0  0  0  0  0  0  0  0  0
   -4.4139    0.7305    1.1639 C   0  0  0  0  0  0  0  0  0  0  0  0
   -4.9366    1.9412    1.6136 C   0  0  0  0  0  0  0  0  0  0  0  0
   -5.8460    2.0352    2.6253 C   0  0  0  0  0  0  0  0  0  0  0  0
   -6.2977    0.9206    3.2607 C   0  0  0  0  0  0  0  0  0  0  0  0
   -7.4667    1.0547    4.5594 Cl  0  0  0  0  0  0  0  0  0  0  0  0
   -5.8072   -0.3208    2.8508 C   0  0  0  0  0  0  0  0  0  0  0  0
   -4.8876   -0.3869    1.8238 C   0  0  0  0  0  0  0  0  0  0  0  0
    5.3429    1.0040    0.5789 C   0  0  0  0  0  0  0  0  0  0  0  0
    4.8966    2.0828    1.0925 O   0  0  0  0  0  0  0  0  0  0  0  0
    6.6942    0.8162    0.5750 O   0  0  0  0  0  0  0  0  0  0  0  0
    7.6292    1.7401    1.1027 C   0  0  0  0  0  0  0  0  0  0  0  0
    5.7590   -2.8332   -1.4026 H   0  0  0  0  0  0  0  0  0  0  0  0
    6.2716   -1.8532    0.0807 H   0  0  0  0  0  0  0  0  0  0  0  0
    7.4015   -2.1931   -1.2502 H   0  0  0  0  0  0  0  0  0  0  0  0
    6.7432    0.0670   -1.6804 H   0  0  0  0  0  0  0  0  0  0  0  0
    5.9579   -1.0134   -2.8545 H   0  0  0  0  0  0  0  0  0  0  0  0
    3.8712   -1.0419   -1.7213 H   0  0  0  0  0  0  0  0  0  0  0  0
    4.7998    0.9165   -3.2715 H   0  0  0  0  0  0  0  0  0  0  0  0
    3.1950    1.1009   -2.3921 H   0  0  0  0  0  0  0  0  0  0  0  0
    4.7183    1.8883   -1.7714 H   0  0  0  0  0  0  0  0  0  0  0  0
    4.4560   -0.9237    0.5458 H   0  0  0  0  0  0  0  0  0  0  0  0
    2.7186    1.4231   -0.2306 H   0  0  0  0  0  0  0  0  0  0  0  0
   -0.3812    1.8565    1.4514 H   0  0  0  0  0  0  0  0  0  0  0  0
    0.8288    2.0802    0.0840 H   0  0  0  0  0  0  0  0  0  0  0  0
   -0.5975    0.4481   -1.2797 H   0  0  0  0  0  0  0  0  0  0  0  0
   -1.4805    1.9302   -0.7626 H   0  0  0  0  0  0  0  0  0  0  0  0
   -2.2675   -0.9842    2.1311 H   0  0  0  0  0  0  0  0  0  0  0  0
   -1.7595    0.6875    2.3842 H   0  0  0  0  0  0  0  0  0  0  0  0
   -0.2822   -1.6594    1.1096 H   0  0  0  0  0  0  0  0  0  0  0  0
    0.0822   -0.9594    2.7495 H   0  0  0  0  0  0  0  0  0  0  0  0
   -2.5234   -1.9252    0.0305 H   0  0  0  0  0  0  0  0  0  0  0  0
   -1.7529   -1.1764   -1.4077 H   0  0  0  0  0  0  0  0  0  0  0  0
   -5.3166    0.3857   -1.7908 H   0  0  0  0  0  0  0  0  0  0  0  0
   -4.9140   -0.4551   -3.9254 H   0  0  0  0  0  0  0  0  0  0  0  0
   -3.3037    0.1252   -3.3549 H   0  0  0  0  0  0  0  0  0  0  0  0
   -3.6513   -1.6318   -3.2833 H   0  0  0  0  0  0  0  0  0  0  0  0
   -6.1978   -1.5305   -0.6725 H   0  0  0  0  0  0  0  0  0  0  0  0
   -4.9841   -2.6547   -1.4523 H   0  0  0  0  0  0  0  0  0  0  0  0
   -6.2041   -1.8112   -2.4200 H   0  0  0  0  0  0  0  0  0  0  0  0
   -3.3899    1.7015   -0.4224 H   0  0  0  0  0  0  0  0  0  0  0  0
   -4.6069    2.8545    1.1390 H   0  0  0  0  0  0  0  0  0  0  0  0
   -6.2506    3.0001    2.9699 H   0  0  0  0  0  0  0  0  0  0  0  0
   -6.1851   -1.1886    3.3743 H   0  0  0  0  0  0  0  0  0  0  0  0
   -4.5445   -1.3719    1.5455 H   0  0  0  0  0  0  0  0  0  0  0  0
    8.2896    1.2520    1.8623 H   0  0  0  0  0  0  0  0  0  0  0  0
    8.3165    2.0075    0.2487 H   0  0  0  0  0  0  0  0  0  0  0  0
    7.1468    2.6176    1.5392 H   0  0  0  0  0  0  0  0  0  0  0  0
  1  2  1  0
  2  3  1  0
  3  4  1  0
  3  5  1  0
  5  6  1  0
  6  7  1  0
  7  8  2  0
  7  9  1  0
  9 10  1  0
 10 11  1  0
 11 12  1  0
 12 13  1  0
 13 14  1  0
 12 15  1  0
 15 16  1  0
 16 17  1  0
 17 18  1  0
 17 19  1  0
 16 20  1  0
 20 21  1  0
 21 22  2  0
 22 23  1  0
 23 24  2  0
 24 25  1  0
 24 26  1  0
 26 27  2  0
  5 28  1  0
 28 29  2  0
 28 30  1  0
 30 31  1  0
 14  9  1  0
 27 21  1  0
 20 12  1  0
  1 32  1  0
  1 33  1  0
  1 34  1  0
  2 35  1  0
  2 36  1  0
  3 37  1  6
  4 38  1  0
  4 39  1  0
  4 40  1  0
  5 41  1  1
  6 42  1  0
 10 43  1  0
 10 44  1  0
 11 45  1  0
 11 46  1  0
 13 47  1  0
 13 48  1  0
 14 49  1  0
 14 50  1  0
 15 51  1  0
 15 52  1  0
 17 53  1  0
 18 54  1  0
 18 55  1  0
 18 56  1  0
 19 57  1  0
 19 58  1  0
 19 59  1  0
 20 60  1  0
 22 61  1  0
 23 62  1  0
 26 63  1  0
 27 64  1  0
 31 65  1  0
 31 66  1  0
 31 67  1  0
M  END
$$$$
