
     RDKit          3D

 57 62  0  0  0  0  0  0  0  0999 V2000
   -0.5435    2.3707   -0.0202 O   0  0  0  0  0  0  0  0  0  0  0  0
   -1.3758    1.4736    0.2444 C   0  0  0  0  0  0  0  0  0  0  0  0
   -2.8134    1.3075    0.1646 N   0  0  0  0  0  0  0  0  0  0  0  0
   -3.6845    2.0442   -0.6922 C   0  0  0  0  0  0  0  0  0  0  0  0
   -3.7860    3.4350   -0.5269 C   0  0  0  0  0  0  0  0  0  0  0  0
   -4.5678    4.2404   -1.2916 C   0  0  0  0  0  0  0  0  0  0  0  0
   -5.3043    3.6437   -2.2893 C   0  0  0  0  0  0  0  0  0  0  0  0
   -5.2334    2.2820   -2.4848 C   0  0  0  0  0  0  0  0  0  0  0  0
   -6.2040    1.5587   -3.7858 Cl  0  0  0  0  0  0  0  0  0  0  0  0
   -4.4344    1.4969   -1.6957 C   0  0  0  0  0  0  0  0  0  0  0  0
   -2.7233    0.3182    1.1569 C   0  0  0  0  0  0  0  0  0  0  0  0
   -3.4421   -0.9530    1.0657 C   0  0  0  0  0  0  0  0  0  0  0  0
   -4.7472   -1.1250    0.6589 C   0  0  0  0  0  0  0  0  0  0  0  0
   -5.2606   -2.4010    0.6633 C   0  0  0  0  0  0  0  0  0  0  0  0
   -4.5239   -3.5014    1.0565 C   0  0  0  0  0  0  0  0  0  0  0  0
   -3.2249   -3.2904    1.4556 C   0  0  0  0  0  0  0  0  0  0  0  0
   -2.7263   -2.0580    1.4523 N   0  0  0  0  0  0  0  0  0  0  0  0
   -1.2665    0.1160    0.7832 C   0  0  0  0  0  0  0  0  0  0  0  0
   -0.9647   -0.8582   -0.3073 C   0  0  0  0  0  0  0  0  0  0  0  0
    0.4191   -0.4895   -0.8264 C   0  0  0  0  0  0  0  0  0  0  0  0
    1.3198   -0.6720    0.2918 N   0  0  0  0  0  0  0  0  0  0  0  0
    2.7173   -0.7091    0.0238 C   0  0  0  0  0  0  0  0  0  0  0  0
    3.4350   -1.6178   -0.6491 N   0  0  0  0  0  0  0  0  0  0  0  0
    4.7536   -1.2804   -0.6402 C   0  0  0  0  0  0  0  0  0  0  0  0
    5.8558   -1.9000   -1.1858 C   0  0  0  0  0  0  0  0  0  0  0  0
    7.0858   -1.3064   -0.9948 C   0  0  0  0  0  0  0  0  0  0  0  0
    8.2184   -1.8849   -1.5174 F   0  0  0  0  0  0  0  0  0  0  0  0
    7.2002   -0.1341   -0.2826 C   0  0  0  0  0  0  0  0  0  0  0  0
    8.5466    0.4673   -0.0882 C   0  0  0  0  0  0  0  0  0  0  0  0
    9.2959   -0.4947    0.5955 F   0  0  0  0  0  0  0  0  0  0  0  0
    8.4676    1.5525    0.7700 F   0  0  0  0  0  0  0  0  0  0  0  0
    9.1420    0.8758   -1.2439 F   0  0  0  0  0  0  0  0  0  0  0  0
    6.0880    0.4671    0.2513 C   0  0  0  0  0  0  0  0  0  0  0  0
    4.8431   -0.1069    0.0744 C   0  0  0  0  0  0  0  0  0  0  0  0
    3.5851    0.2208    0.4681 N   0  0  0  0  0  0  0  0  0  0  0  0
    0.8875   -0.8112    1.6672 C   0  0  0  0  0  0  0  0  0  0  0  0
   -0.3599   -0.0274    1.9736 C   0  0  0  0  0  0  0  0  0  0  0  0
   -3.1783    3.8719    0.2831 H   0  0  0  0  0  0  0  0  0  0  0  0
   -4.6300    5.3240   -1.1432 H   0  0  0  0  0  0  0  0  0  0  0  0
   -5.9380    4.2701   -2.9172 H   0  0  0  0  0  0  0  0  0  0  0  0
   -4.4043    0.4264   -1.8793 H   0  0  0  0  0  0  0  0  0  0  0  0
   -2.7797    0.7097    2.2294 H   0  0  0  0  0  0  0  0  0  0  0  0
   -5.3162   -0.2756    0.3610 H   0  0  0  0  0  0  0  0  0  0  0  0
   -6.2782   -2.5566    0.3464 H   0  0  0  0  0  0  0  0  0  0  0  0
   -4.9315   -4.5075    1.0626 H   0  0  0  0  0  0  0  0  0  0  0  0
   -2.6125   -4.1491    1.7783 H   0  0  0  0  0  0  0  0  0  0  0  0
   -0.8739   -1.9133    0.0082 H   0  0  0  0  0  0  0  0  0  0  0  0
   -1.6785   -0.7016   -1.1324 H   0  0  0  0  0  0  0  0  0  0  0  0
    0.7435   -1.1732   -1.6450 H   0  0  0  0  0  0  0  0  0  0  0  0
    0.4633    0.5796   -1.1175 H   0  0  0  0  0  0  0  0  0  0  0  0
    5.7394   -2.8160   -1.7426 H   0  0  0  0  0  0  0  0  0  0  0  0
    6.1647    1.3737    0.8062 H   0  0  0  0  0  0  0  0  0  0  0  0
    3.3884    1.0754    1.0283 H   0  0  0  0  0  0  0  0  0  0  0  0
    1.6924   -0.3858    2.3040 H   0  0  0  0  0  0  0  0  0  0  0  0
    0.7959   -1.8680    1.9457 H   0  0  0  0  0  0  0  0  0  0  0  0
   -0.9219   -0.5257    2.7867 H   0  0  0  0  0  0  0  0  0  0  0  0
   -0.1187    0.9931    2.3425 H   0  0  0  0  0  0  0  0  0  0  0  0
  1  2  2  0
  2  3  1  0
  3  4  1  0
  4  5  2  0
  5  6  1  0
  6  7  2  0
  7  8  1  0
  8  9  1  0
  8 10  2  0
  3 11  1  0
 11 12  1  0
 12 13  2  0
 13 14  1  0
 14 15  2  0
 15 16  1  0
 16 17  2  0
 11 18  1  0
 18 19  1  0
 19 20  1  0
 20 21  1  0
 21 22  1  0
 22 23  2  0
 23 24  1  0
 24 25  2  0
 25 26  1  0
 26 27  1  0
 26 28  2  0
 28 29  1  0
 29 30  1  0
 29 31  1  0
 29 32  1  0
 28 33  1  0
 33 34  2  0
 34 35  1  0
 21 36  1  0
 36 37  1  0
 18  2  1  0
 35 22  1  0
 10  4  1  0
 17 12  1  0
 37 18  1  0
 34 24  1  0
  5 38  1  0
  6 39  1  0
  7 40  1  0
 10 41  1  0
 11 42  1  0
 13 43  1  0
 14 44  1  0
 15 45  1  0
 16 46  1  0
 19 47  1  0
 19 48  1  0
 20 49  1  0
 20 50  1  0
 25 51  1  0
 33 52  1  0
 35 53  1  0
 36 54  1  0
 36 55  1  0
 37 56  1  0
 37 57  1  0
M  END
$$$$
