
     RDKit          3D

 60 62  0  0  0  0  0  0  0  0999 V2000
    6.4067   -0.0327   -1.3743 C   0  0  0  0  0  0  0  0  0  0  0  0
    6.0136    0.3192    0.0237 C   0  0  0  0  0  0  0  0  0  0  0  0
    4.5512    0.6454    0.1688 C   0  0  2  0  0  0  0  0  0  0  0  0
    4.2984    0.9794    1.6325 C   0  0  0  0  0  0  0  0  0  0  0  0
    3.6255   -0.4519   -0.2463 C   0  0  2  0  0  0  0  0  0  0  0  0
    2.2735    0.0196   -0.0461 N   0  0  0  0  0  0  0  0  0  0  0  0
    1.3258    0.1752   -1.0955 C   0  0  0  0  0  0  0  0  0  0  0  0
    1.7219   -0.1258   -2.2615 O   0  0  0  0  0  0  0  0  0  0  0  0
    0.0113    0.6424   -0.8421 N   0  0  0  0  0  0  0  0  0  0  0  0
   -0.3783    0.9694    0.5111 C   0  0  0  0  0  0  0  0  0  0  0  0
   -1.5519    1.9434    0.3731 C   0  0  0  0  0  0  0  0  0  0  0  0
   -2.7288    1.3158   -0.3147 C   0  0  0  0  0  0  0  0  0  0  0  0
   -2.3376    0.5805   -1.5415 C   0  0  0  0  0  0  0  0  0  0  0  0
   -0.8896    0.7728   -1.9542 C   0  0  0  0  0  0  0  0  0  0  0  0
   -3.8121    2.3168   -0.4599 C   0  0  0  0  0  0  0  0  0  0  0  0
   -4.1791    3.2012   -1.2908 O   0  0  0  0  0  0  0  0  0  0  0  0
   -4.3324    1.8782    0.7885 N   0  0  0  0  0  0  0  0  0  0  0  0
   -5.1925    2.3829    1.8414 C   0  0  0  0  0  0  0  0  0  0  0  0
   -3.6395    0.6129    0.6461 C   0  0  0  0  0  0  0  0  0  0  0  0
   -4.4865   -0.4504    0.1157 C   0  0  0  0  0  0  0  0  0  0  0  0
   -4.4627   -1.7046    0.6899 C   0  0  0  0  0  0  0  0  0  0  0  0
   -5.2625   -2.7427    0.2034 C   0  0  0  0  0  0  0  0  0  0  0  0
   -6.1018   -2.5341   -0.8723 C   0  0  0  0  0  0  0  0  0  0  0  0
   -7.1175   -3.8437   -1.4944 Cl  0  0  0  0  0  0  0  0  0  0  0  0
   -6.1299   -1.2945   -1.4451 C   0  0  0  0  0  0  0  0  0  0  0  0
   -5.3359   -0.2792   -0.9556 C   0  0  0  0  0  0  0  0  0  0  0  0
    3.9088   -1.6944    0.4766 C   0  0  0  0  0  0  0  0  0  0  0  0
    2.9617   -2.1916    1.1761 O   0  0  0  0  0  0  0  0  0  0  0  0
    5.1243   -2.3471    0.4435 O   0  0  0  0  0  0  0  0  0  0  0  0
    5.2747   -3.5432    1.1864 C   0  0  0  0  0  0  0  0  0  0  0  0
    6.7288   -1.1092   -1.4373 H   0  0  0  0  0  0  0  0  0  0  0  0
    7.2828    0.5509   -1.7384 H   0  0  0  0  0  0  0  0  0  0  0  0
    5.5978    0.1372   -2.1159 H   0  0  0  0  0  0  0  0  0  0  0  0
    6.3601   -0.4025    0.7901 H   0  0  0  0  0  0  0  0  0  0  0  0
    6.5657    1.2732    0.2727 H   0  0  0  0  0  0  0  0  0  0  0  0
    4.3299    1.5916   -0.4053 H   0  0  0  0  0  0  0  0  0  0  0  0
    4.0872    0.0574    2.2185 H   0  0  0  0  0  0  0  0  0  0  0  0
    5.1741    1.4663    2.1015 H   0  0  0  0  0  0  0  0  0  0  0  0
    3.4411    1.6805    1.7324 H   0  0  0  0  0  0  0  0  0  0  0  0
    3.7251   -0.6430   -1.3460 H   0  0  0  0  0  0  0  0  0  0  0  0
    1.9745    0.2598    0.9236 H   0  0  0  0  0  0  0  0  0  0  0  0
   -0.7030    0.0930    1.0901 H   0  0  0  0  0  0  0  0  0  0  0  0
    0.4159    1.5681    1.0437 H   0  0  0  0  0  0  0  0  0  0  0  0
   -1.1737    2.7931   -0.2231 H   0  0  0  0  0  0  0  0  0  0  0  0
   -1.8830    2.3174    1.3595 H   0  0  0  0  0  0  0  0  0  0  0  0
   -2.9458    0.8817   -2.4439 H   0  0  0  0  0  0  0  0  0  0  0  0
   -2.4643   -0.5284   -1.3729 H   0  0  0  0  0  0  0  0  0  0  0  0
   -0.7353    1.7320   -2.4841 H   0  0  0  0  0  0  0  0  0  0  0  0
   -0.6510   -0.0364   -2.6751 H   0  0  0  0  0  0  0  0  0  0  0  0
   -6.2495    2.1275    1.6317 H   0  0  0  0  0  0  0  0  0  0  0  0
   -5.0608    3.4944    1.9796 H   0  0  0  0  0  0  0  0  0  0  0  0
   -4.9371    1.9243    2.8227 H   0  0  0  0  0  0  0  0  0  0  0  0
   -3.0658    0.2985    1.5427 H   0  0  0  0  0  0  0  0  0  0  0  0
   -3.8365   -1.9584    1.5354 H   0  0  0  0  0  0  0  0  0  0  0  0
   -5.2442   -3.7264    0.6535 H   0  0  0  0  0  0  0  0  0  0  0  0
   -6.7788   -1.1066   -2.2886 H   0  0  0  0  0  0  0  0  0  0  0  0
   -5.3796    0.6837   -1.4261 H   0  0  0  0  0  0  0  0  0  0  0  0
    4.2801   -4.0491    1.1827 H   0  0  0  0  0  0  0  0  0  0  0  0
    5.5264   -3.3462    2.2490 H   0  0  0  0  0  0  0  0  0  0  0  0
    6.0597   -4.1892    0.7452 H   0  0  0  0  0  0  0  0  0  0  0  0
  1  2  1  0
  2  3  1  0
  3  4  1  0
  3  5  1  0
  5  6  1  0
  6  7  1  0
  7  8  2  0
  7  9  1  0
  9 10  1  0
 10 11  1  0
 11 12  1  0
 12 13  1  0
 13 14  1  0
 12 15  1  0
 15 16  2  0
 15 17  1  0
 17 18  1  0
 17 19  1  0
 19 20  1  0
 20 21  2  0
 21 22  1  0
 22 23  2  0
 23 24  1  0
 23 25  1  0
 25 26  2  0
  5 27  1  0
 27 28  2  0
 27 29  1  0
 29 30  1  0
 14  9  1  0
 26 20  1  0
 19 12  1  0
  1 31  1  0
  1 32  1  0
  1 33  1  0
  2 34  1  0
  2 35  1  0
  3 36  1  6
  4 37  1  0
  4 38  1  0
  4 39  1  0
  5 40  1  6
  6 41  1  0
 10 42  1  0
 10 43  1  0
 11 44  1  0
 11 45  1  0
 13 46  1  0
 13 47  1  0
 14 48  1  0
 14 49  1  0
 18 50  1  0
 18 51  1  0
 18 52  1  0
 19 53  1  0
 21 54  1  0
 22 55  1  0
 25 56  1  0
 26 57  1  0
 30 58  1  0
 30 59  1  0
 30 60  1  0
M  END
$$$$
