
     RDKit          3D

 56 59  0  0  0  0  0  0  0  0999 V2000
   -4.0265    2.5875   -0.4131 C   0  0  0  0  0  0  0  0  0  0  0  0
   -2.8883    2.4769    0.5773 C   0  0  0  0  0  0  0  0  0  0  0  0
   -3.3700    2.9816    1.9249 C   0  0  0  0  0  0  0  0  0  0  0  0
   -2.4832    1.1237    0.7434 N   0  0  0  0  0  0  0  0  0  0  0  0
   -1.0773    0.8543    0.9670 C   0  0  0  0  0  0  0  0  0  0  0  0
   -1.0625   -0.0198   -0.2401 C   0  0  0  0  0  0  0  0  0  0  0  0
   -0.1238    0.6042   -1.2885 C   0  0  0  0  0  0  0  0  0  0  0  0
    1.2829    0.6359   -0.6857 C   0  0  0  0  0  0  0  0  0  0  0  0
    1.6963   -0.6280   -0.2027 N   0  0  0  0  0  0  0  0  0  0  0  0
    3.0925   -0.9141   -0.0466 C   0  0  0  0  0  0  0  0  0  0  0  0
    3.4881   -2.0363    0.3513 O   0  0  0  0  0  0  0  0  0  0  0  0
    4.0758    0.0900   -0.3444 N   0  0  0  0  0  0  0  0  0  0  0  0
    5.4714   -0.0881   -0.2474 C   0  0  0  0  0  0  0  0  0  0  0  0
    6.3065    1.0293   -0.1115 C   0  0  0  0  0  0  0  0  0  0  0  0
    7.6767    0.8840   -0.0452 C   0  0  0  0  0  0  0  0  0  0  0  0
    8.2806   -0.3554   -0.1101 C   0  0  0  0  0  0  0  0  0  0  0  0
    9.6384   -0.4822   -0.0407 F   0  0  0  0  0  0  0  0  0  0  0  0
    7.4722   -1.4585   -0.2444 C   0  0  0  0  0  0  0  0  0  0  0  0
    8.0721   -2.6823   -0.3132 F   0  0  0  0  0  0  0  0  0  0  0  0
    6.0833   -1.3096   -0.3112 C   0  0  0  0  0  0  0  0  0  0  0  0
    0.7807   -1.6619    0.1579 C   0  0  0  0  0  0  0  0  0  0  0  0
   -0.6542   -1.4423   -0.1079 C   0  0  0  0  0  0  0  0  0  0  0  0
   -2.4838    0.3005   -0.4807 C   0  0  0  0  0  0  0  0  0  0  0  0
   -3.5041   -0.7475   -0.4035 C   0  0  0  0  0  0  0  0  0  0  0  0
   -3.8126   -1.4788    0.7180 C   0  0  0  0  0  0  0  0  0  0  0  0
   -4.7946   -2.4647    0.7055 C   0  0  0  0  0  0  0  0  0  0  0  0
   -5.5065   -2.7561   -0.4341 C   0  0  0  0  0  0  0  0  0  0  0  0
   -6.7564   -4.0033   -0.4693 Cl  0  0  0  0  0  0  0  0  0  0  0  0
   -5.2025   -2.0212   -1.5752 C   0  0  0  0  0  0  0  0  0  0  0  0
   -4.2285   -1.0454   -1.5569 C   0  0  0  0  0  0  0  0  0  0  0  0
   -3.6660    2.8523   -1.4227 H   0  0  0  0  0  0  0  0  0  0  0  0
   -4.5832    1.6354   -0.5186 H   0  0  0  0  0  0  0  0  0  0  0  0
   -4.7990    3.3218   -0.0679 H   0  0  0  0  0  0  0  0  0  0  0  0
   -2.0681    3.1183    0.1807 H   0  0  0  0  0  0  0  0  0  0  0  0
   -2.5999    2.6133    2.6627 H   0  0  0  0  0  0  0  0  0  0  0  0
   -3.3807    4.0771    1.9801 H   0  0  0  0  0  0  0  0  0  0  0  0
   -4.3128    2.4929    2.1979 H   0  0  0  0  0  0  0  0  0  0  0  0
   -0.4162    1.7605    0.9248 H   0  0  0  0  0  0  0  0  0  0  0  0
   -0.9507    0.2501    1.8950 H   0  0  0  0  0  0  0  0  0  0  0  0
   -0.1292   -0.0473   -2.1712 H   0  0  0  0  0  0  0  0  0  0  0  0
   -0.4938    1.6163   -1.4974 H   0  0  0  0  0  0  0  0  0  0  0  0
    1.9364    0.8561   -1.5914 H   0  0  0  0  0  0  0  0  0  0  0  0
    1.4089    1.4770    0.0342 H   0  0  0  0  0  0  0  0  0  0  0  0
    3.6640    1.0258   -0.6527 H   0  0  0  0  0  0  0  0  0  0  0  0
    5.8203    1.9869   -0.0585 H   0  0  0  0  0  0  0  0  0  0  0  0
    8.3330    1.7440    0.0634 H   0  0  0  0  0  0  0  0  0  0  0  0
    5.5297   -2.2234   -0.4294 H   0  0  0  0  0  0  0  0  0  0  0  0
    1.1464   -2.5951   -0.3849 H   0  0  0  0  0  0  0  0  0  0  0  0
    0.9869   -1.9219    1.2305 H   0  0  0  0  0  0  0  0  0  0  0  0
   -1.2933   -2.0142    0.6093 H   0  0  0  0  0  0  0  0  0  0  0  0
   -0.8719   -1.9344   -1.1087 H   0  0  0  0  0  0  0  0  0  0  0  0
   -2.5928    1.0105   -1.3336 H   0  0  0  0  0  0  0  0  0  0  0  0
   -3.2801   -1.2792    1.6359 H   0  0  0  0  0  0  0  0  0  0  0  0
   -5.0350   -3.0393    1.5949 H   0  0  0  0  0  0  0  0  0  0  0  0
   -5.7844   -2.2714   -2.4671 H   0  0  0  0  0  0  0  0  0  0  0  0
   -4.0112   -0.4844   -2.4611 H   0  0  0  0  0  0  0  0  0  0  0  0
  1  2  1  0
  2  3  1  0
  2  4  1  0
  4  5  1  0
  5  6  1  0
  6  7  1  0
  7  8  1  0
  8  9  1  0
  9 10  1  0
 10 11  2  0
 10 12  1  0
 12 13  1  0
 13 14  2  0
 14 15  1  0
 15 16  2  0
 16 17  1  0
 16 18  1  0
 18 19  1  0
 18 20  2  0
  9 21  1  0
 21 22  1  0
  6 23  1  0
 23 24  1  0
 24 25  2  0
 25 26  1  0
 26 27  2  0
 27 28  1  0
 27 29  1  0
 29 30  2  0
 23  4  1  0
 30 24  1  0
 22  6  1  0
 20 13  1  0
  1 31  1  0
  1 32  1  0
  1 33  1  0
  2 34  1  0
  3 35  1  0
  3 36  1  0
  3 37  1  0
  5 38  1  0
  5 39  1  0
  7 40  1  0
  7 41  1  0
  8 42  1  0
  8 43  1  0
 12 44  1  0
 14 45  1  0
 15 46  1  0
 20 47  1  0
 21 48  1  0
 21 49  1  0
 22 50  1  0
 22 51  1  0
 23 52  1  0
 25 53  1  0
 26 54  1  0
 29 55  1  0
 30 56  1  0
M  END
$$$$
