
     RDKit          3D

 62 64  0  0  0  0  0  0  0  0999 V2000
   -4.2824    2.4202    0.9034 C   0  0  0  0  0  0  0  0  0  0  0  0
   -2.8776    1.9136    0.8686 C   0  0  0  0  0  0  0  0  0  0  0  0
   -2.1762    2.5242   -0.3249 C   0  0  0  0  0  0  0  0  0  0  0  0
   -2.7921    0.5061    0.7379 O   0  0  0  0  0  0  0  0  0  0  0  0
   -2.1529   -0.2967    1.6593 C   0  0  0  0  0  0  0  0  0  0  0  0
   -1.6387    0.3275    2.6421 O   0  0  0  0  0  0  0  0  0  0  0  0
   -2.0272   -1.7639    1.5932 C   0  0  0  0  0  0  0  0  0  0  0  0
   -2.6403   -2.3672    0.4434 N   0  0  0  0  0  0  0  0  0  0  0  0
   -4.0201   -2.7789    0.4357 C   0  0  0  0  0  0  0  0  0  0  0  0
   -5.0474   -1.9633    0.0312 C   0  0  0  0  0  0  0  0  0  0  0  0
   -6.3570   -2.3885    0.0334 C   0  0  0  0  0  0  0  0  0  0  0  0
   -6.6974   -3.6603    0.4443 C   0  0  0  0  0  0  0  0  0  0  0  0
   -5.6723   -4.4869    0.8523 C   0  0  0  0  0  0  0  0  0  0  0  0
   -6.0749   -6.0957    1.3749 Cl  0  0  0  0  0  0  0  0  0  0  0  0
   -4.3634   -4.0645    0.8512 C   0  0  0  0  0  0  0  0  0  0  0  0
   -1.7265   -2.6387   -0.9826 S   0  0  0  0  0  0  0  0  0  0  0  0
   -0.5672   -3.5784   -0.7141 O   0  0  0  0  0  0  0  0  0  0  0  0
   -2.5590   -3.3421   -2.0409 O   0  0  0  0  0  0  0  0  0  0  0  0
   -1.1028   -1.1909   -1.7062 C   0  0  0  0  0  0  0  0  0  0  0  0
   -1.8556   -0.5505   -2.6692 C   0  0  0  0  0  0  0  0  0  0  0  0
   -1.3589    0.6034   -3.2550 C   0  0  0  0  0  0  0  0  0  0  0  0
   -0.1303    1.0778   -2.8601 C   0  0  0  0  0  0  0  0  0  0  0  0
    0.6356    0.4336   -1.8855 C   0  0  0  0  0  0  0  0  0  0  0  0
    1.8704    1.0288   -1.5729 N   0  0  0  0  0  0  0  0  0  0  0  0
    2.8482    0.5480   -0.6755 C   0  0  0  0  0  0  0  0  0  0  0  0
    2.6591   -0.5060   -0.0683 O   0  0  0  0  0  0  0  0  0  0  0  0
    4.1294    1.2919   -0.4350 C   0  0  0  0  0  0  0  0  0  0  0  0
    4.9309    0.4996    0.5692 C   0  0  0  0  0  0  0  0  0  0  0  0
    6.2254    1.1569    0.8775 C   0  0  0  0  0  0  0  0  0  0  0  0
    6.3144    2.0669    1.9095 C   0  0  0  0  0  0  0  0  0  0  0  0
    7.5106    2.6986    2.2230 C   0  0  0  0  0  0  0  0  0  0  0  0
    8.5996    2.3644    1.4457 C   0  0  0  0  0  0  0  0  0  0  0  0
    8.5422    1.4583    0.4071 C   0  0  0  0  0  0  0  0  0  0  0  0
    7.3268    0.8381    0.1138 C   0  0  0  0  0  0  0  0  0  0  0  0
    0.1299   -0.6998   -1.3213 C   0  0  0  0  0  0  0  0  0  0  0  0
   -4.3056    3.4133    0.4071 H   0  0  0  0  0  0  0  0  0  0  0  0
   -4.9936    1.7772    0.3068 H   0  0  0  0  0  0  0  0  0  0  0  0
   -4.6673    2.5771    1.9331 H   0  0  0  0  0  0  0  0  0  0  0  0
   -2.3659    2.2430    1.7957 H   0  0  0  0  0  0  0  0  0  0  0  0
   -2.7082    2.1678   -1.2304 H   0  0  0  0  0  0  0  0  0  0  0  0
   -1.1266    2.2227   -0.3993 H   0  0  0  0  0  0  0  0  0  0  0  0
   -2.2686    3.6310   -0.3372 H   0  0  0  0  0  0  0  0  0  0  0  0
   -0.9426   -2.0090    1.6181 H   0  0  0  0  0  0  0  0  0  0  0  0
   -2.4365   -2.2378    2.5284 H   0  0  0  0  0  0  0  0  0  0  0  0
   -4.8403   -0.9676   -0.2995 H   0  0  0  0  0  0  0  0  0  0  0  0
   -7.1746   -1.7248   -0.2934 H   0  0  0  0  0  0  0  0  0  0  0  0
   -7.7344   -4.0045    0.4489 H   0  0  0  0  0  0  0  0  0  0  0  0
   -3.5466   -4.7141    1.1735 H   0  0  0  0  0  0  0  0  0  0  0  0
   -2.8133   -0.9578   -2.9481 H   0  0  0  0  0  0  0  0  0  0  0  0
   -1.9570    1.0949   -4.0071 H   0  0  0  0  0  0  0  0  0  0  0  0
    0.2307    1.9832   -3.3379 H   0  0  0  0  0  0  0  0  0  0  0  0
    2.1402    1.9470   -2.0405 H   0  0  0  0  0  0  0  0  0  0  0  0
    4.6735    1.4371   -1.3699 H   0  0  0  0  0  0  0  0  0  0  0  0
    3.8368    2.2828    0.0041 H   0  0  0  0  0  0  0  0  0  0  0  0
    5.1520   -0.4983    0.0972 H   0  0  0  0  0  0  0  0  0  0  0  0
    4.3357    0.3287    1.4817 H   0  0  0  0  0  0  0  0  0  0  0  0
    5.4281    2.2979    2.4945 H   0  0  0  0  0  0  0  0  0  0  0  0
    7.5773    3.4175    3.0392 H   0  0  0  0  0  0  0  0  0  0  0  0
    9.5559    2.8264    1.6463 H   0  0  0  0  0  0  0  0  0  0  0  0
    9.3998    1.1969   -0.2029 H   0  0  0  0  0  0  0  0  0  0  0  0
    7.2849    0.1254   -0.7043 H   0  0  0  0  0  0  0  0  0  0  0  0
    0.6640   -1.2419   -0.5666 H   0  0  0  0  0  0  0  0  0  0  0  0
  1  2  1  0
  2  3  1  0
  2  4  1  0
  4  5  1  0
  5  6  2  0
  5  7  1  0
  7  8  1  0
  8  9  1  0
  9 10  2  0
 10 11  1  0
 11 12  2  0
 12 13  1  0
 13 14  1  0
 13 15  2  0
  8 16  1  0
 16 17  2  0
 16 18  2  0
 16 19  1  0
 19 20  2  0
 20 21  1  0
 21 22  2  0
 22 23  1  0
 23 24  1  0
 24 25  1  0
 25 26  2  0
 25 27  1  0
 27 28  1  0
 28 29  1  0
 29 30  2  0
 30 31  1  0
 31 32  2  0
 32 33  1  0
 33 34  2  0
 23 35  2  0
 15  9  1  0
 35 19  1  0
 34 29  1  0
  1 36  1  0
  1 37  1  0
  1 38  1  0
  2 39  1  0
  3 40  1  0
  3 41  1  0
  3 42  1  0
  7 43  1  0
  7 44  1  0
 10 45  1  0
 11 46  1  0
 12 47  1  0
 15 48  1  0
 20 49  1  0
 21 50  1  0
 22 51  1  0
 24 52  1  0
 27 53  1  0
 27 54  1  0
 28 55  1  0
 28 56  1  0
 30 57  1  0
 31 58  1  0
 32 59  1  0
 33 60  1  0
 34 61  1  0
 35 62  1  0
M  END
$$$$
