
     RDKit          3D

 68 71  0  0  0  0  0  0  0  0999 V2000
   -5.9500    2.4411    2.0757 C   0  0  0  0  0  0  0  0  0  0  0  0
   -5.2488    1.1236    1.8030 C   0  0  0  0  0  0  0  0  0  0  0  0
   -5.2541    0.9111    0.3100 C   0  0  2  0  0  0  0  0  0  0  0  0
   -6.7104    0.8514   -0.0970 C   0  0  0  0  0  0  0  0  0  0  0  0
   -4.5483   -0.3071   -0.1646 C   0  0  2  0  0  0  0  0  0  0  0  0
   -3.1430   -0.3878    0.0806 N   0  0  0  0  0  0  0  0  0  0  0  0
   -2.2393    0.6127    0.4640 C   0  0  0  0  0  0  0  0  0  0  0  0
   -2.6631    1.7933    0.6139 O   0  0  0  0  0  0  0  0  0  0  0  0
   -0.8442    0.3190    0.6884 N   0  0  0  0  0  0  0  0  0  0  0  0
   -0.3791   -1.0120    0.5204 C   0  0  0  0  0  0  0  0  0  0  0  0
    0.9927   -1.2393    1.1374 C   0  0  0  0  0  0  0  0  0  0  0  0
    1.9339   -0.2563    0.5858 C   0  0  0  0  0  0  0  0  0  0  0  0
    1.4372    1.1659    0.5332 C   0  0  0  0  0  0  0  0  0  0  0  0
    0.0526    1.3593    1.0724 C   0  0  0  0  0  0  0  0  0  0  0  0
    2.5026   -0.6205   -0.8023 C   0  0  0  0  0  0  0  0  0  0  0  0
    3.6095    0.2289   -0.4103 N   0  0  0  0  0  0  0  0  0  0  0  0
    4.5201    1.1573   -0.9466 C   0  0  0  0  0  0  0  0  0  0  0  0
    5.4520    1.7653   -0.1444 C   0  0  0  0  0  0  0  0  0  0  0  0
    6.3774    2.6843   -0.5929 C   0  0  0  0  0  0  0  0  0  0  0  0
    6.3699    3.0167   -1.9310 C   0  0  0  0  0  0  0  0  0  0  0  0
    5.4315    2.4099   -2.7602 C   0  0  0  0  0  0  0  0  0  0  0  0
    5.4238    2.7404   -4.0916 F   0  0  0  0  0  0  0  0  0  0  0  0
    4.5244    1.4997   -2.2837 C   0  0  0  0  0  0  0  0  0  0  0  0
    3.3951   -0.3199    0.9530 C   0  0  0  0  0  0  0  0  0  0  0  0
    4.0173   -1.6619    0.9887 C   0  0  0  0  0  0  0  0  0  0  0  0
    5.1116   -1.9157    0.1548 C   0  0  0  0  0  0  0  0  0  0  0  0
    5.7939   -3.1018    0.1090 C   0  0  0  0  0  0  0  0  0  0  0  0
    5.3769   -4.1192    0.9405 C   0  0  0  0  0  0  0  0  0  0  0  0
    6.2353   -5.6311    0.8911 Cl  0  0  0  0  0  0  0  0  0  0  0  0
    4.2968   -3.8810    1.7698 C   0  0  0  0  0  0  0  0  0  0  0  0
    3.6180   -2.6854    1.8088 C   0  0  0  0  0  0  0  0  0  0  0  0
   -4.9439   -0.7054   -1.5051 C   0  0  0  0  0  0  0  0  0  0  0  0
   -4.0451   -1.0639   -2.3663 O   0  0  0  0  0  0  0  0  0  0  0  0
   -6.2303   -0.7557   -2.0098 O   0  0  0  0  0  0  0  0  0  0  0  0
   -6.5188   -1.1593   -3.3330 C   0  0  0  0  0  0  0  0  0  0  0  0
   -6.0276    3.0523    1.1294 H   0  0  0  0  0  0  0  0  0  0  0  0
   -6.9493    2.3163    2.5035 H   0  0  0  0  0  0  0  0  0  0  0  0
   -5.3292    3.0725    2.7576 H   0  0  0  0  0  0  0  0  0  0  0  0
   -5.9835    0.3281    2.2071 H   0  0  0  0  0  0  0  0  0  0  0  0
   -4.3296    1.0075    2.3378 H   0  0  0  0  0  0  0  0  0  0  0  0
   -4.8229    1.8516   -0.1562 H   0  0  0  0  0  0  0  0  0  0  0  0
   -6.9095    1.2274   -1.1119 H   0  0  0  0  0  0  0  0  0  0  0  0
   -7.3361    1.4636    0.6302 H   0  0  0  0  0  0  0  0  0  0  0  0
   -7.1506   -0.1619   -0.0092 H   0  0  0  0  0  0  0  0  0  0  0  0
   -4.9807   -1.1093    0.5709 H   0  0  0  0  0  0  0  0  0  0  0  0
   -2.6946   -1.3596   -0.0443 H   0  0  0  0  0  0  0  0  0  0  0  0
   -0.3860   -1.3430   -0.5183 H   0  0  0  0  0  0  0  0  0  0  0  0
   -1.0631   -1.6840    1.1186 H   0  0  0  0  0  0  0  0  0  0  0  0
    0.8980   -1.2041    2.2209 H   0  0  0  0  0  0  0  0  0  0  0  0
    1.2805   -2.2614    0.7492 H   0  0  0  0  0  0  0  0  0  0  0  0
    2.1088    1.8487    1.1323 H   0  0  0  0  0  0  0  0  0  0  0  0
    1.4528    1.5834   -0.4935 H   0  0  0  0  0  0  0  0  0  0  0  0
   -0.3020    2.3630    0.7632 H   0  0  0  0  0  0  0  0  0  0  0  0
    0.1335    1.3510    2.1921 H   0  0  0  0  0  0  0  0  0  0  0  0
    1.8605   -0.2518   -1.5975 H   0  0  0  0  0  0  0  0  0  0  0  0
    2.7222   -1.7050   -0.7884 H   0  0  0  0  0  0  0  0  0  0  0  0
    5.4730    1.5124    0.9262 H   0  0  0  0  0  0  0  0  0  0  0  0
    7.0829    3.1223    0.1014 H   0  0  0  0  0  0  0  0  0  0  0  0
    7.0841    3.7384   -2.3265 H   0  0  0  0  0  0  0  0  0  0  0  0
    3.7833    1.0168   -2.9233 H   0  0  0  0  0  0  0  0  0  0  0  0
    3.7137    0.3786    1.7446 H   0  0  0  0  0  0  0  0  0  0  0  0
    5.4436   -1.1069   -0.5073 H   0  0  0  0  0  0  0  0  0  0  0  0
    6.6381   -3.2189   -0.5706 H   0  0  0  0  0  0  0  0  0  0  0  0
    4.0059   -4.7152    2.4072 H   0  0  0  0  0  0  0  0  0  0  0  0
    2.7903   -2.5554    2.4938 H   0  0  0  0  0  0  0  0  0  0  0  0
   -6.1782   -2.1982   -3.5186 H   0  0  0  0  0  0  0  0  0  0  0  0
   -7.6450   -1.1748   -3.4170 H   0  0  0  0  0  0  0  0  0  0  0  0
   -6.1374   -0.4408   -4.0647 H   0  0  0  0  0  0  0  0  0  0  0  0
  1  2  1  0
  2  3  1  0
  3  4  1  0
  3  5  1  0
  5  6  1  0
  6  7  1  0
  7  8  2  0
  7  9  1  0
  9 10  1  0
 10 11  1  0
 11 12  1  0
 12 13  1  0
 13 14  1  0
 12 15  1  0
 15 16  1  0
 16 17  1  0
 17 18  2  0
 18 19  1  0
 19 20  2  0
 20 21  1  0
 21 22  1  0
 21 23  2  0
 16 24  1  0
 24 25  1  0
 25 26  2  0
 26 27  1  0
 27 28  2  0
 28 29  1  0
 28 30  1  0
 30 31  2  0
  5 32  1  0
 32 33  2  0
 32 34  1  0
 34 35  1  0
 14  9  1  0
 23 17  1  0
 31 25  1  0
 24 12  1  0
  1 36  1  0
  1 37  1  0
  1 38  1  0
  2 39  1  0
  2 40  1  0
  3 41  1  6
  4 42  1  0
  4 43  1  0
  4 44  1  0
  5 45  1  1
  6 46  1  0
 10 47  1  0
 10 48  1  0
 11 49  1  0
 11 50  1  0
 13 51  1  0
 13 52  1  0
 14 53  1  0
 14 54  1  0
 15 55  1  0
 15 56  1  0
 18 57  1  0
 19 58  1  0
 20 59  1  0
 23 60  1  0
 24 61  1  0
 26 62  1  0
 27 63  1  0
 30 64  1  0
 31 65  1  0
 35 66  1  0
 35 67  1  0
 35 68  1  0
M  END
$$$$
