
     RDKit          3D

 75 78  0  0  0  0  0  0  0  0999 V2000
   -5.5199    1.5909    2.6279 C   0  0  0  0  0  0  0  0  0  0  0  0
   -4.3477    1.6969    1.7106 C   0  0  0  0  0  0  0  0  0  0  0  0
   -4.4998    1.3604    0.4406 C   0  0  0  0  0  0  0  0  0  0  0  0
   -5.8208    0.8963   -0.0340 C   0  0  0  0  0  0  0  0  0  0  0  0
   -5.9249    0.5812   -1.2670 O   0  0  0  0  0  0  0  0  0  0  0  0
   -6.9283    0.7774    0.7268 O   0  0  0  0  0  0  0  0  0  0  0  0
   -8.1927    0.3494    0.3393 C   0  0  0  0  0  0  0  0  0  0  0  0
   -8.5822   -0.8321    1.2077 C   0  0  0  0  0  0  0  0  0  0  0  0
   -9.2117    1.4490    0.6408 C   0  0  0  0  0  0  0  0  0  0  0  0
   -3.3634    1.3944   -0.5198 C   0  0  0  0  0  0  0  0  0  0  0  0
   -3.0077   -0.0598   -0.7265 C   0  0  0  0  0  0  0  0  0  0  0  0
   -3.2611   -0.7379   -1.8804 C   0  0  0  0  0  0  0  0  0  0  0  0
   -2.9183   -2.0757   -2.0058 C   0  0  0  0  0  0  0  0  0  0  0  0
   -2.3160   -2.7660   -0.9846 C   0  0  0  0  0  0  0  0  0  0  0  0
   -2.0561   -2.0841    0.1887 C   0  0  0  0  0  0  0  0  0  0  0  0
   -1.2842   -2.9562    1.5070 Cl  0  0  0  0  0  0  0  0  0  0  0  0
   -2.3998   -0.7383    0.3176 C   0  0  0  0  0  0  0  0  0  0  0  0
   -2.1872    2.0138    0.0291 N   0  0  0  0  0  0  0  0  0  0  0  0
   -1.0679    2.3335   -0.8464 C   0  0  0  0  0  0  0  0  0  0  0  0
   -0.0525    1.2496   -0.9660 C   0  0  0  0  0  0  0  0  0  0  0  0
    1.0304    1.7745   -1.9102 C   0  0  0  0  0  0  0  0  0  0  0  0
    2.0825    0.7093   -2.0558 N   0  0  0  0  0  0  0  0  0  0  0  0
    1.8808   -0.2309   -3.1086 C   0  0  0  0  0  0  0  0  0  0  0  0
    3.1499    0.7214   -1.1716 C   0  0  0  0  0  0  0  0  0  0  0  0
    3.0922    1.7005   -0.3027 O   0  0  0  0  0  0  0  0  0  0  0  0
    4.2998   -0.1341   -1.0326 C   0  0  0  0  0  0  0  0  0  0  0  0
    4.5840   -1.2407   -1.7932 C   0  0  0  0  0  0  0  0  0  0  0  0
    5.7373   -2.0037   -1.5830 C   0  0  0  0  0  0  0  0  0  0  0  0
    6.6365   -1.6791   -0.6060 C   0  0  0  0  0  0  0  0  0  0  0  0
    7.7858   -2.4133   -0.3737 O   0  0  0  0  0  0  0  0  0  0  0  0
    8.6982   -2.0756    0.6032 C   0  0  0  0  0  0  0  0  0  0  0  0
    9.7418   -1.2309    0.3001 C   0  0  0  0  0  0  0  0  0  0  0  0
   10.6790   -0.8751    1.2768 C   0  0  0  0  0  0  0  0  0  0  0  0
   10.5683   -1.3677    2.5587 C   0  0  0  0  0  0  0  0  0  0  0  0
    9.5217   -2.2133    2.8579 C   0  0  0  0  0  0  0  0  0  0  0  0
    8.5866   -2.5653    1.8741 C   0  0  0  0  0  0  0  0  0  0  0  0
    6.3570   -0.5729    0.1580 C   0  0  0  0  0  0  0  0  0  0  0  0
    5.2333    0.1941   -0.0259 C   0  0  0  0  0  0  0  0  0  0  0  0
   -2.0240    2.3641    1.3968 C   0  0  0  0  0  0  0  0  0  0  0  0
   -0.9011    2.8095    1.8189 O   0  0  0  0  0  0  0  0  0  0  0  0
   -3.1331    2.2031    2.2560 N   0  0  0  0  0  0  0  0  0  0  0  0
   -5.8674    0.5544    2.7373 H   0  0  0  0  0  0  0  0  0  0  0  0
   -6.3438    2.2625    2.3706 H   0  0  0  0  0  0  0  0  0  0  0  0
   -5.1448    1.8621    3.6592 H   0  0  0  0  0  0  0  0  0  0  0  0
   -8.2746    0.0794   -0.7296 H   0  0  0  0  0  0  0  0  0  0  0  0
   -9.6721   -0.8245    1.4234 H   0  0  0  0  0  0  0  0  0  0  0  0
   -8.2470   -1.7982    0.7872 H   0  0  0  0  0  0  0  0  0  0  0  0
   -8.0710   -0.7084    2.1838 H   0  0  0  0  0  0  0  0  0  0  0  0
   -9.5706    1.3240    1.6853 H   0  0  0  0  0  0  0  0  0  0  0  0
   -8.7511    2.4528    0.5805 H   0  0  0  0  0  0  0  0  0  0  0  0
  -10.0963    1.3701   -0.0223 H   0  0  0  0  0  0  0  0  0  0  0  0
   -3.6517    1.8479   -1.4749 H   0  0  0  0  0  0  0  0  0  0  0  0
   -3.7334   -0.2280   -2.7069 H   0  0  0  0  0  0  0  0  0  0  0  0
   -3.1180   -2.6247   -2.9259 H   0  0  0  0  0  0  0  0  0  0  0  0
   -2.0425   -3.8190   -1.0736 H   0  0  0  0  0  0  0  0  0  0  0  0
   -2.1830   -0.2307    1.2506 H   0  0  0  0  0  0  0  0  0  0  0  0
   -1.5186    2.5135   -1.8640 H   0  0  0  0  0  0  0  0  0  0  0  0
   -0.6475    3.2990   -0.5043 H   0  0  0  0  0  0  0  0  0  0  0  0
   -0.4897    0.3701   -1.5192 H   0  0  0  0  0  0  0  0  0  0  0  0
    0.3591    0.8708   -0.0374 H   0  0  0  0  0  0  0  0  0  0  0  0
    1.5225    2.6773   -1.5211 H   0  0  0  0  0  0  0  0  0  0  0  0
    0.6519    1.9314   -2.9329 H   0  0  0  0  0  0  0  0  0  0  0  0
    1.7280   -1.2332   -2.6955 H   0  0  0  0  0  0  0  0  0  0  0  0
    0.9288    0.0636   -3.6952 H   0  0  0  0  0  0  0  0  0  0  0  0
    2.6996   -0.2058   -3.8381 H   0  0  0  0  0  0  0  0  0  0  0  0
    3.9246   -1.5576   -2.5747 H   0  0  0  0  0  0  0  0  0  0  0  0
    5.9297   -2.8624   -2.1945 H   0  0  0  0  0  0  0  0  0  0  0  0
    9.8866   -0.8055   -0.6977 H   0  0  0  0  0  0  0  0  0  0  0  0
   11.5077   -0.2144    1.0669 H   0  0  0  0  0  0  0  0  0  0  0  0
   11.3016   -1.0891    3.3234 H   0  0  0  0  0  0  0  0  0  0  0  0
    9.4561   -2.5868    3.8706 H   0  0  0  0  0  0  0  0  0  0  0  0
    7.7695   -3.2309    2.1230 H   0  0  0  0  0  0  0  0  0  0  0  0
    7.0648   -0.2988    0.9438 H   0  0  0  0  0  0  0  0  0  0  0  0
    5.0601    1.0603    0.6068 H   0  0  0  0  0  0  0  0  0  0  0  0
   -3.0324    2.4622    3.2811 H   0  0  0  0  0  0  0  0  0  0  0  0
  1  2  1  0
  2  3  2  0
  3  4  1  0
  4  5  2  0
  4  6  1  0
  6  7  1  0
  7  8  1  0
  7  9  1  0
  3 10  1  0
 10 11  1  0
 11 12  2  0
 12 13  1  0
 13 14  2  0
 14 15  1  0
 15 16  1  0
 15 17  2  0
 10 18  1  0
 18 19  1  0
 19 20  1  0
 20 21  1  0
 21 22  1  0
 22 23  1  0
 22 24  1  0
 24 25  2  0
 24 26  1  0
 26 27  2  0
 27 28  1  0
 28 29  2  0
 29 30  1  0
 30 31  1  0
 31 32  2  0
 32 33  1  0
 33 34  2  0
 34 35  1  0
 35 36  2  0
 29 37  1  0
 37 38  2  0
 18 39  1  0
 39 40  2  0
 39 41  1  0
 41  2  1  0
 17 11  1  0
 38 26  1  0
 36 31  1  0
  1 42  1  0
  1 43  1  0
  1 44  1  0
  7 45  1  0
  8 46  1  0
  8 47  1  0
  8 48  1  0
  9 49  1  0
  9 50  1  0
  9 51  1  0
 10 52  1  0
 12 53  1  0
 13 54  1  0
 14 55  1  0
 17 56  1  0
 19 57  1  0
 19 58  1  0
 20 59  1  0
 20 60  1  0
 21 61  1  0
 21 62  1  0
 23 63  1  0
 23 64  1  0
 23 65  1  0
 27 66  1  0
 28 67  1  0
 32 68  1  0
 33 69  1  0
 34 70  1  0
 35 71  1  0
 36 72  1  0
 37 73  1  0
 38 74  1  0
 41 75  1  0
M  END
$$$$
