
     RDKit          3D

 54 58  0  0  0  0  0  0  0  0999 V2000
    3.5636    1.5707    0.8853 O   0  0  0  0  0  0  0  0  0  0  0  0
    3.1703    0.5674    0.2189 C   0  0  0  0  0  0  0  0  0  0  0  0
    4.0437   -0.2665   -0.4782 N   0  0  0  0  0  0  0  0  0  0  0  0
    5.4456   -0.1029   -0.5321 C   0  0  0  0  0  0  0  0  0  0  0  0
    6.1078    1.0140   -0.0968 C   0  0  0  0  0  0  0  0  0  0  0  0
    7.5030    1.1007   -0.1666 C   0  0  0  0  0  0  0  0  0  0  0  0
    8.1080    2.2262    0.2766 F   0  0  0  0  0  0  0  0  0  0  0  0
    8.2614    0.0832   -0.6683 C   0  0  0  0  0  0  0  0  0  0  0  0
    7.6204   -1.0580   -1.1163 C   0  0  0  0  0  0  0  0  0  0  0  0
    8.3763   -2.0613   -1.6121 F   0  0  0  0  0  0  0  0  0  0  0  0
    6.2546   -1.1191   -1.0376 C   0  0  0  0  0  0  0  0  0  0  0  0
    1.7658    0.3565    0.2351 N   0  0  0  0  0  0  0  0  0  0  0  0
    1.1885   -0.7517   -0.4636 C   0  0  0  0  0  0  0  0  0  0  0  0
   -0.1377   -1.1653    0.1661 C   0  0  0  0  0  0  0  0  0  0  0  0
   -1.0517    0.0004    0.1835 C   0  0  0  0  0  0  0  0  0  0  0  0
   -0.3817    1.3445    0.0395 C   0  0  0  0  0  0  0  0  0  0  0  0
    0.8563    1.2597    0.9479 C   0  0  0  0  0  0  0  0  0  0  0  0
   -1.9450    0.0710    1.4015 C   0  0  0  0  0  0  0  0  0  0  0  0
   -1.9338   -0.2478    2.5912 O   0  0  0  0  0  0  0  0  0  0  0  0
   -2.8857    0.7164    0.5213 N   0  0  0  0  0  0  0  0  0  0  0  0
   -3.8464    1.7341    0.6345 C   0  0  0  0  0  0  0  0  0  0  0  0
   -3.9096    2.5643    1.7459 C   0  0  0  0  0  0  0  0  0  0  0  0
   -4.8354    3.5443    1.8543 N   0  0  0  0  0  0  0  0  0  0  0  0
   -5.7528    3.7784    0.8958 C   0  0  0  0  0  0  0  0  0  0  0  0
   -5.7059    2.9636   -0.2173 C   0  0  0  0  0  0  0  0  0  0  0  0
   -6.8766    3.2352   -1.4836 Cl  0  0  0  0  0  0  0  0  0  0  0  0
   -4.7736    1.9552   -0.3573 C   0  0  0  0  0  0  0  0  0  0  0  0
   -2.3671   -0.1704   -0.5087 C   0  0  0  0  0  0  0  0  0  0  0  0
   -2.9187   -1.5207   -0.2906 C   0  0  0  0  0  0  0  0  0  0  0  0
   -3.4039   -2.2548   -1.3456 C   0  0  0  0  0  0  0  0  0  0  0  0
   -3.9310   -3.5354   -1.1287 C   0  0  0  0  0  0  0  0  0  0  0  0
   -3.9688   -4.0736    0.1479 C   0  0  0  0  0  0  0  0  0  0  0  0
   -3.4673   -3.2936    1.1783 C   0  0  0  0  0  0  0  0  0  0  0  0
   -2.9706   -2.0712    0.9282 N   0  0  0  0  0  0  0  0  0  0  0  0
    3.6278   -1.0847   -1.0156 H   0  0  0  0  0  0  0  0  0  0  0  0
    5.6065    1.8691    0.3035 H   0  0  0  0  0  0  0  0  0  0  0  0
    9.3434    0.1766   -0.7113 H   0  0  0  0  0  0  0  0  0  0  0  0
    5.7558   -2.0097   -1.3877 H   0  0  0  0  0  0  0  0  0  0  0  0
    0.9427   -0.5043   -1.5295 H   0  0  0  0  0  0  0  0  0  0  0  0
    1.8218   -1.6593   -0.5181 H   0  0  0  0  0  0  0  0  0  0  0  0
   -0.5691   -1.9243   -0.5491 H   0  0  0  0  0  0  0  0  0  0  0  0
    0.0016   -1.6822    1.1345 H   0  0  0  0  0  0  0  0  0  0  0  0
   -1.0445    2.1298    0.4139 H   0  0  0  0  0  0  0  0  0  0  0  0
   -0.0573    1.5547   -0.9805 H   0  0  0  0  0  0  0  0  0  0  0  0
    1.2966    2.2369    1.1369 H   0  0  0  0  0  0  0  0  0  0  0  0
    0.5432    0.7462    1.8777 H   0  0  0  0  0  0  0  0  0  0  0  0
   -3.2121    2.4469    2.5629 H   0  0  0  0  0  0  0  0  0  0  0  0
   -6.4848    4.5800    1.0206 H   0  0  0  0  0  0  0  0  0  0  0  0
   -4.7422    1.3114   -1.2463 H   0  0  0  0  0  0  0  0  0  0  0  0
   -2.4427    0.2168   -1.5364 H   0  0  0  0  0  0  0  0  0  0  0  0
   -3.4032   -1.8925   -2.3625 H   0  0  0  0  0  0  0  0  0  0  0  0
   -4.3187   -4.1349   -1.9318 H   0  0  0  0  0  0  0  0  0  0  0  0
   -4.3756   -5.0697    0.3303 H   0  0  0  0  0  0  0  0  0  0  0  0
   -3.4911   -3.7003    2.1788 H   0  0  0  0  0  0  0  0  0  0  0  0
  1  2  2  0
  2  3  1  0
  3  4  1  0
  4  5  2  0
  5  6  1  0
  6  7  1  0
  6  8  2  0
  8  9  1  0
  9 10  1  0
  9 11  2  0
  2 12  1  0
 12 13  1  0
 13 14  1  0
 14 15  1  0
 15 16  1  0
 16 17  1  0
 15 18  1  0
 18 19  2  0
 18 20  1  0
 20 21  1  0
 21 22  2  0
 22 23  1  0
 23 24  2  0
 24 25  1  0
 25 26  1  0
 25 27  2  0
 20 28  1  0
 28 29  1  0
 29 30  2  0
 30 31  1  0
 31 32  2  0
 32 33  1  0
 33 34  2  0
 11  4  1  0
 17 12  1  0
 27 21  1  0
 34 29  1  0
 28 15  1  0
  3 35  1  0
  5 36  1  0
  8 37  1  0
 11 38  1  0
 13 39  1  0
 13 40  1  0
 14 41  1  0
 14 42  1  0
 16 43  1  0
 16 44  1  0
 17 45  1  0
 17 46  1  0
 22 47  1  0
 24 48  1  0
 27 49  1  0
 28 50  1  0
 30 51  1  0
 31 52  1  0
 32 53  1  0
 33 54  1  0
M  END
$$$$
