
     RDKit          3D

 24 23  0  0  0  0  0  0  0  0999 V2000
    6.7470   -1.8252    0.8548 C   0  0  0  0  0  0  0  0  0  0  0  0
    7.0845   -0.5438    0.1132 C   0  0  0  0  0  0  0  0  0  0  0  0
    6.2712    0.5986    0.6670 C   0  0  2  0  0  0  0  0  0  0  0  0
    6.5736    0.7898    2.1431 C   0  0  0  0  0  0  0  0  0  0  0  0
    4.8266    0.3301    0.4660 C   0  0  0  0  0  0  0  0  0  0  0  0
    4.1082    1.1140   -0.2071 O   0  0  0  0  0  0  0  0  0  0  0  0
    4.2373   -0.8242    1.0367 N   0  0  0  0  0  0  0  0  0  0  0  0
    2.8036   -1.0665    0.8222 C   0  0  0  0  0  3  0  0  0  0  0  0
    2.1712   -1.1596    2.1954 C   0  0  0  0  0  3  0  0  0  0  0  0
    1.1607   -0.0497    2.3578 C   0  0  0  0  0  0  0  0  0  0  0  0
    0.0522   -0.1122    1.3525 C   0  0  0  0  0  0  0  0  0  0  0  0
    0.6196   -0.0089   -0.0402 C   0  0  0  0  0  3  0  0  0  0  0  0
   -0.5340   -0.0713   -0.9900 C   0  0  0  0  0  0  0  0  0  0  0  0
   -1.2821    0.9909   -1.1041 C   0  0  0  0  0  0  0  0  0  0  0  0
   -2.4551    1.2095   -1.9406 C   0  0  2  0  0  0  0  0  0  0  0  0
   -2.1294    2.0676   -3.1154 C   0  0  0  0  0  2  0  0  0  0  0  0
   -3.7211    1.5480   -1.2492 C   0  0  0  0  0  3  0  0  0  0  0  0
   -4.2808    0.5489   -0.3191 C   0  0  0  0  0  0  0  0  0  0  0  0
   -4.6712   -0.7598   -0.9165 C   0  0  1  0  0  0  0  0  0  0  0  0
   -5.7450   -0.5303   -1.9897 C   0  0  0  0  0  2  0  0  0  0  0  0
   -3.5330   -1.5185   -1.5616 C   0  0  0  0  0  0  0  0  0  0  0  0
   -5.1894   -1.6151    0.0990 O   0  0  0  0  0  0  0  0  0  0  0  0
   -6.3048   -1.2162    0.8087 C   0  0  0  0  0  0  0  0  0  0  0  0
   -6.8097   -0.1055    0.5171 O   0  0  0  0  0  0  0  0  0  0  0  0
  1  2  1  0
  2  3  1  0
  3  4  1  1
  3  5  1  0
  5  6  2  0
  5  7  1  0
  7  8  1  0
  8  9  1  0
  9 10  1  0
 10 11  1  0
 11 12  1  0
 12 13  1  0
 13 14  2  3
 14 15  1  0
 15 16  1  6
 15 17  1  0
 17 18  1  0
 18 19  1  0
 19 20  1  6
 19 21  1  0
 19 22  1  0
 22 23  1  0
 23 24  2  0
M  RAD  6   8   2   9   2  12   2  16   3  17   2  20   3
M  END
>  <fragInfo>  (1) 
5 6 7
1 2
3 4
8
9
10
11
12
13 14
15 16
17
18
19 20 21
22
23 24


>  <torsionInfo>  (1) 
3 5 2 0
7 8 0 3
2 3 1 2
8 9 3 4
9 10 4 5
10 11 5 6
11 12 6 7
12 13 7 8
14 15 8 9
15 17 9 10
17 18 10 11
18 19 11 12
19 22 12 13
22 23 13 14


>  <atomInfo>  (1) 
1  -0.0646318C 
2  -0.0447514C 
3  0.03483668C 
4  -0.0536677C 
5  0.22261608C 
6  -0.2748201OA
7  -0.3507717N 
8  0.05245765C 
9  -0.0141028C 
10 -0.0474841C 
11 -0.0460441C 
12 -0.0170289C 
13 -0.0845337C 
14 -0.0845317C 
15 -0.0166368C 
16 -0.0274156C 
17 -0.0274667C 
18 -0.0091812C 
19 0.11300703C 
20 0.01260253C 
21 -0.0244696C 
22 -0.4612465OA
23 0.29313099C 
24 -0.2561150OA


$$$$
