
     RDKit          3D

 23 26  0  0  0  0  0  0  0  0999 V2000
    0.4621   -1.0977   -1.1311 C   0  0  0  0  0  0  0  0  0  0  0  0
   -0.4471   -1.8685   -0.4302 O   0  0  0  0  0  0  0  0  0  0  0  0
   -1.7425   -1.6583   -0.1015 C   0  0  0  0  0  0  0  0  0  0  0  0
   -2.3004   -2.6714    0.6862 C   0  0  0  0  0  0  0  0  0  0  0  0
   -3.5929   -2.6483    1.1217 C   0  0  0  0  0  0  0  0  0  0  0  0
   -4.4142   -1.5998    0.7937 C   0  0  0  0  0  0  0  0  0  0  0  0
   -3.8730   -0.5993    0.0214 C   0  0  0  0  0  0  0  0  0  0  0  0
   -2.5540   -0.5969   -0.4387 C   0  0  0  0  0  0  0  0  0  0  0  0
   -2.0886    0.4725   -1.2312 O   0  0  0  0  0  0  0  0  0  0  0  0
   -1.1801    1.4206   -0.8559 C   0  0  2  0  0  0  0  0  0  0  0  0
   -1.5349    2.6998   -0.3988 N   0  0  0  0  0  0  0  0  0  0  0  0
   -0.3291    3.2194   -1.0546 C   0  0  1  0  0  0  0  0  0  0  0  0
    0.8242    3.5084   -0.1554 C   0  0  0  0  0  0  0  0  0  0  0  0
   -0.1261    1.8657   -1.7729 C   0  0  1  0  0  0  0  0  0  0  0  0
    1.1781    1.2100   -1.3556 C   0  0  0  0  0  0  0  0  0  0  0  0
    0.9692    0.1006   -0.3729 C   0  0  1  0  0  0  0  0  0  0  0  0
    0.0824    0.4456    0.6780 O   0  0  0  0  0  0  0  0  0  0  0  0
    2.2511   -0.1479    0.3300 C   0  0  0  0  0  0  0  0  0  0  0  0
    2.4768   -1.3299    0.9921 C   0  0  0  0  0  0  0  0  0  0  0  0
    3.6783   -1.5608    1.6631 C   0  0  0  0  0  0  0  0  0  0  0  0
    4.5948   -0.5810    1.6417 C   0  0  0  0  0  0  0  0  0  0  0  0
    4.4389    0.6011    1.0227 C   0  0  0  0  0  0  0  0  0  0  0  0
    3.2272    0.8159    0.3481 C   0  0  0  0  0  0  0  0  0  0  0  0
  1  2  1  0
  2  3  1  0
  3  4  2  0
  4  5  1  0
  5  6  2  0
  6  7  1  0
  7  8  2  0
  8  9  1  0
  9 10  1  0
 10 11  1  6
 11 12  1  0
 12 13  1  1
 12 14  1  0
 14 15  1  1
 15 16  1  0
 16 17  1  1
 16 18  1  0
 18 19  2  0
 19 20  1  0
 20 21  2  0
 21 22  1  0
 22 23  2  0
 16  1  1  0
  8  3  1  0
 14 10  1  0
 23 18  1  0
M  END
>  <fragInfo>  (1) 
1 2 3 4 5 6 7 8 9 10 11 12 13 14 15 16 17
18 19 20 21 22 23


>  <torsionInfo>  (1) 
16 18 0 1


>  <atomInfo>  (1) 
1  0.12131374C 
2  -0.4863252OA
3  0.16094021A 
4  -0.0160701A 
5  -0.0583060A 
6  -0.0583044A 
7  -0.0159764A 
8  0.16311279A 
9  -0.4710865OA
10 0.15456638C 
11 -0.2790873NA
12 0.01508169C 
13 -0.0491633C 
14 0.02809525C 
15 -0.0072565C 
16 0.12397914C 
17 -0.3815634OA
18 -0.0131074A 
19 -0.0560245A 
20 -0.0618843A 
21 -0.0622451A 
22 -0.0618843A 
23 -0.0560245A 


$$$$
