
     RDKit          3D

 28 32  0  0  0  0  0  0  0  0999 V2000
   -3.9927   -0.5756    3.9768 C   0  0  0  0  0  0  0  0  0  0  0  0
   -3.9904   -0.6295    2.5639 O   0  0  0  0  0  0  0  0  0  0  0  0
   -3.0619   -1.3146    1.8391 C   0  0  0  0  0  0  0  0  0  0  0  0
   -2.0610   -0.8130    1.2027 C   0  0  0  0  0  0  0  0  0  0  0  0
   -1.8742    0.7403    1.2542 C   0  0  0  0  0  0  0  0  0  0  0  0
   -1.6045    1.2811    0.0493 C   0  0  0  0  0  0  0  0  0  0  0  0
   -1.4859    0.7445   -1.2240 C   0  0  0  0  0  0  0  0  0  0  0  0
   -1.9129   -0.3050   -1.7927 C   0  0  0  0  0  0  0  0  0  0  0  0
   -2.6689   -1.4217   -1.5106 C   0  0  0  0  0  0  0  0  0  0  0  0
   -3.8520   -1.6163   -1.3818 O   0  0  0  0  0  0  0  0  0  0  0  0
   -1.8325   -2.7718   -1.3038 C   0  0  0  0  0  0  0  0  0  0  0  0
   -0.6260   -2.1282   -0.5369 C   0  0  0  0  0  0  0  0  0  0  0  0
    0.5836   -2.2750   -1.2199 C   0  0  0  0  0  0  0  0  0  0  0  0
    1.6262   -1.4232   -0.9010 C   0  0  0  0  0  0  0  0  0  0  0  0
    1.3302   -0.5160    0.0880 C   0  0  0  0  0  0  0  0  0  0  0  0
    0.2179   -0.4076    0.7144 C   0  0  0  0  0  0  0  0  0  0  0  0
   -0.9216   -1.2550    0.4340 C   0  0  0  0  0  0  0  0  0  0  0  0
   -1.1261    2.7341    0.2594 C   0  0  0  0  0  0  0  0  0  0  0  0
    0.4009    2.7286    0.3285 C   0  0  0  0  0  0  0  0  0  0  0  0
    0.9952    3.3390   -0.6923 C   0  0  0  0  0  0  0  0  0  0  0  0
    1.1959    2.1311    1.3813 C   0  0  0  0  0  0  0  0  0  0  0  0
    2.6779    2.1520    1.3493 C   0  0  0  0  0  0  0  0  0  0  0  0
    3.2826    1.1842    0.3499 C   0  0  0  0  0  0  0  0  0  0  0  0
    4.3912    1.1287   -0.4094 C   0  0  0  0  0  0  0  0  0  0  0  0
    4.3161   -0.1904   -1.1917 C   0  0  2  0  0  0  0  0  0  0  0  0
    4.5469    0.1098   -2.6578 C   0  0  0  0  0  0  0  0  0  0  0  0
    2.9383   -0.7182   -0.9520 C   0  0  0  0  0  0  0  0  0  0  0  0
    2.5076    0.0875   -0.0169 C   0  0  0  0  0  0  0  0  0  0  0  0
  1  2  1  0
  2  3  1  0
  3  4  2  3
  4  5  1  0
  5  6  2  0
  6  7  1  0
  7  8  2  0
  8  9  1  0
  9 10  2  0
  9 11  1  0
 11 12  1  0
 12 13  2  0
 13 14  1  0
 14 15  2  0
 15 16  1  0
 16 17  2  0
  6 18  1  0
 18 19  1  0
 19 20  2  0
 19 21  1  0
 21 22  1  0
 22 23  1  0
 23 24  2  0
 24 25  1  0
 25 26  1  6
 25 27  1  0
 27 28  2  0
 17  4  1  0
 17 12  1  0
 27 14  1  0
 28 15  1  0
 28 23  1  0
M  END
>  <fragInfo>  (1) 
3 4 5 6 7 8 9 10 11 12 13 14 15 16 17 18 19 20 21 22 23 24 25 26 27 28
1 2


>  <torsionInfo>  (1) 
2 3 1 0


>  <atomInfo>  (1) 
1  0.07663406C 
2  -0.5037196OA
3  0.09027201C 
4  0.01678910C 
5  -0.0477384C 
6  -0.0431195C 
7  -0.0551548C 
8  -0.0183516C 
9  0.15958299C 
10 -0.2944865OA
11 0.03603536C 
12 -0.0316748A 
13 -0.0497351A 
14 -0.0130177A 
15 -0.0095952A 
16 -0.0454590A 
17 -0.0109829A 
18 -0.0069434C 
19 -0.0726865C 
20 -0.0995148C 
21 -0.0278914C 
22 -0.0238136C 
23 -0.0428879C 
24 -0.0733822C 
25 0.00080251C 
26 -0.0548271C 
27 -0.0253611C 
28 -0.0104202C 


$$$$
