
     RDKit          3D

  9  8  0  0  0  0  0  0  0  0999 V2000
    3.0776    0.2706   -0.9124 C   0  0  0  0  0  0  0  0  0  0  0  0
    1.9040    0.0624   -0.0293 C   0  0  0  0  0  0  0  0  0  0  0  0
    2.0897   -0.1693    1.1795 O   0  0  0  0  0  0  0  0  0  0  0  0
    0.6360    0.1402   -0.6180 O   0  0  0  0  0  0  0  0  0  0  0  0
   -0.4813   -0.0501    0.1821 C   0  0  0  0  0  0  0  0  0  0  0  0
   -1.8372    0.0039   -0.2985 C   0  0  0  0  0  0  0  0  0  0  0  0
   -2.9936   -0.2081    0.6061 C   0  0  0  0  0  0  0  0  0  0  0  0
   -2.0931    0.2349   -1.5139 O   0  0  0  0  0  0  0  0  0  0  0  0
   -0.3021   -0.2846    1.4044 O   0  0  0  0  0  0  0  0  0  0  0  0
  1  2  1  0
  2  3  2  0
  2  4  1  0
  4  5  1  0
  5  6  1  0
  6  7  1  0
  6  8  2  0
  5  9  2  0
M  END
>  <fragInfo>  (1) 
1 2 3
4
5 9
6 7 8


>  <torsionInfo>  (1) 
2 4 0 1
4 5 1 2
5 6 2 3


>  <atomInfo>  (1) 
1  0.03448576C 
2  0.31008153C 
3  -0.2520669OA
4  -0.3874565OA
5  0.38142189C 
6  0.23701682C 
7  0.00611764C 
8  -0.2870596OA
9  -0.2421375OA


$$$$
