
     RDKit          3D

  7  6  0  0  0  0  0  0  0  0999 V2000
   -2.7944    0.7996   -0.9882 C   0  0  0  0  0  0  0  0  0  0  0  0
   -2.1081   -0.8266   -0.6364 S   0  0  0  0  0  0  0  0  0  0  0  0
   -1.0192   -0.8171    0.7746 C   0  0  0  0  0  0  0  0  0  0  0  0
    0.2211   -0.3850    0.7428 C   0  0  0  0  0  0  0  0  0  0  0  0
    0.8029    0.1288   -0.4817 C   0  0  0  0  0  0  0  0  0  0  0  0
    2.0476    0.5523   -0.4739 C   0  0  0  0  0  0  0  0  0  0  0  0
    2.8500    0.5480    0.6098 F   0  0  0  0  0  0  0  0  0  0  0  0
  1  2  1  0
  2  3  1  0
  3  4  2  3
  4  5  1  0
  5  6  2  3
  6  7  1  0
M  END
>  <fragInfo>  (1) 
5 6 7
1 2
3 4


>  <torsionInfo>  (1) 
4 5 2 0
2 3 1 2


>  <atomInfo>  (1) 
1  -0.0142271C 
2  -0.1375680SA
3  -0.0294167C 
4  -0.0536648C 
5  -0.0333419C 
6  0.08666045C 
7  -0.2155427F 


$$$$
