
     RDKit          3D

 60 59  0  0  0  0  0  0  0  0999 V2000
   -6.4724   -6.2773   -0.3655 C   0  0  0  0  0  0  0  0  0  0  0  0
   -7.1184   -5.4994   -1.3077 O   0  0  0  0  0  0  0  0  0  0  0  0
   -7.5283   -4.2884   -0.7291 C   0  0  0  0  0  3  0  0  0  0  0  0
   -6.7718   -4.1051    0.4499 O   0  0  0  0  0  0  0  0  0  0  0  0
   -5.4456   -4.2127    0.0912 C   0  0  2  0  0  0  0  0  0  0  0  0
   -4.6638   -4.0058    1.4526 C   0  0  0  0  0  0  0  0  0  0  0  0
   -4.9572   -3.3147   -0.7958 O   0  0  0  0  0  0  0  0  0  0  0  0
   -4.9015   -2.0765   -0.6258 C   0  0  2  0  0  0  0  0  0  0  0  0
   -6.0701   -1.1605   -0.4244 C   0  0  0  0  0  3  0  0  0  0  0  0
   -5.5762    0.2195   -0.6533 C   0  0  0  0  0  0  0  0  0  0  0  0
   -6.3189    1.4128   -0.5330 C   0  0  2  0  0  0  0  0  0  0  0  0
   -6.8888    1.4997    0.9978 C   0  0  0  0  0  0  0  0  0  0  0  0
   -7.6416    0.3819    1.1871 O   0  0  0  0  0  0  0  0  0  0  0  0
   -8.6637    0.1297    0.3264 C   0  0  0  0  0  3  0  0  0  0  0  0
   -9.8986   -0.5038    0.9221 C   0  0  0  0  0  0  0  0  0  0  0  0
   -7.6996    1.5744   -1.2612 C   0  0  0  0  0  0  0  0  0  0  0  0
   -7.9711    2.9371   -0.9318 O   0  0  0  0  0  0  0  0  0  0  0  0
   -8.8925    3.0757   -0.0612 O   0  0  0  0  0  0  0  0  0  0  0  0
   -8.8999    4.4469    0.3667 C   0  0  2  0  0  0  0  0  0  0  0  0
   -9.7139    4.5510    1.5677 O   0  0  0  0  0  0  0  0  0  0  0  0
   -9.8746    5.0424   -0.5835 O   0  0  0  0  0  0  0  0  0  0  0  0
  -10.0095    6.2761   -0.2738 O   0  0  0  0  0  0  0  0  0  0  0  0
  -11.2405    6.4566    0.3141 C   0  0  0  0  0  0  0  0  0  0  0  0
  -12.1889    5.9940   -0.6153 F   0  0  0  0  0  0  0  0  0  0  0  0
   -3.3836   -1.0888   -0.8127 P   0  0  0  0  0  0  0  0  0  0  0  0
   -2.6626   -1.1283   -2.3584 O   0  0  0  0  0  0  0  0  0  0  0  0
   -2.3462   -1.1397    0.5202 O   0  0  0  0  0  0  0  0  0  0  0  0
   -1.5179   -0.1536    0.6710 O   0  0  0  0  0  0  0  0  0  0  0  0
   -1.7207    0.7781   -0.3535 C   0  0  0  0  0  3  0  0  0  0  0  0
   -0.9025    0.6660   -1.4316 O   0  0  0  0  0  0  0  0  0  0  0  0
    0.4314    0.4639   -1.1093 C   0  0  0  0  0  3  0  0  0  0  0  0
    0.4917   -0.3418    0.0652 O   0  0  0  0  0  0  0  0  0  0  0  0
    1.7953   -0.5738    0.4163 C   0  0  2  0  0  0  0  0  0  0  0  0
    1.8135   -1.3672    1.5253 F   0  0  0  0  0  0  0  0  0  0  0  0
    2.4395    0.6232    0.6117 O   0  0  0  0  0  0  0  0  0  0  0  0
    3.7886    0.4130    0.9681 C   0  0  0  0  0  3  0  0  0  0  0  0
    4.3305   -0.8878    0.3608 C   0  0  2  0  0  0  0  0  0  0  0  0
    5.9754   -1.1695    1.0896 P   0  0  0  0  0  0  0  0  0  0  0  0
    7.3107   -0.2983    0.1439 C   0  0  0  0  0  3  0  0  0  0  0  0
    7.5525    1.0767    0.8214 C   0  0  0  0  0  0  0  0  0  0  0  0
    6.7922    2.0508    0.2354 O   0  0  0  0  0  0  0  0  0  0  0  0
    7.0521    3.5921    1.0012 P   0  0  0  0  0  0  0  0  0  0  0  0
    7.0355    5.1888   -0.5108 P   0  0  0  0  0  0  0  0  0  0  0  0
    8.9983    6.1949   -0.5333 P   0  0  0  0  0  0  0  0  0  0  0  0
   10.1232    5.2824    0.6581 C   0  0  2  0  0  0  0  0  0  0  0  0
   10.7900    6.2042    1.4619 F   0  0  0  0  0  0  0  0  0  0  0  0
   11.1463    4.5600   -0.1674 C   0  0  0  0  0  3  0  0  0  0  0  0
   11.6985    3.4654    0.4963 O   0  0  0  0  0  0  0  0  0  0  0  0
   11.6609    2.4374   -0.3431 O   0  0  0  0  0  0  0  0  0  0  0  0
   11.2729    1.2717    0.2671 C   0  0  0  0  0  3  0  0  0  0  0  0
   11.1817    0.2516   -0.7130 O   0  0  0  0  0  0  0  0  0  0  0  0
    4.5165   -0.5736   -1.4552 P   0  0  0  0  0  0  0  0  0  0  0  0
    4.2083   -2.3796   -2.6352 P   0  0  0  0  0  0  0  0  0  0  0  0
    4.0762   -4.1393   -1.3536 P   0  0  0  0  0  0  0  0  0  0  0  0
    5.6913   -4.4419   -0.5241 C   0  0  2  0  0  0  0  0  0  0  0  0
    6.7223   -4.0101   -1.3244 O   0  0  0  0  0  0  0  0  0  0  0  0
    5.8531   -6.2346   -0.1320 P   0  0  0  0  0  0  0  0  0  0  0  0
    7.5414   -6.6389    0.1023 O   0  0  0  0  0  0  0  0  0  0  0  0
    7.8204   -7.7099   -0.6168 O   0  0  0  0  0  0  0  0  0  0  0  0
    7.8306   -8.7976    0.1080 F   0  0  0  0  0  0  0  0  0  0  0  0
  1  2  1  0
  2  3  1  0
  3  4  1  0
  4  5  1  0
  5  6  1  1
  5  7  1  0
  7  8  1  0
  8  9  1  6
  9 10  1  0
 11 10  1  1
 11 12  1  0
 12 13  1  0
 13 14  1  0
 14 15  1  0
 11 16  1  0
 16 17  1  0
 17 18  1  0
 18 19  1  0
 19 20  1  1
 19 21  1  0
 21 22  1  0
 22 23  1  0
 23 24  1  0
  8 25  1  0
 25 26  1  0
 25 27  1  0
 27 28  1  0
 28 29  1  0
 29 30  1  0
 30 31  1  0
 31 32  1  0
 32 33  1  0
 33 34  1  1
 33 35  1  0
 35 36  1  0
 37 36  1  1
 37 38  1  0
 38 39  1  0
 39 40  1  0
 40 41  1  0
 41 42  1  0
 42 43  1  0
 43 44  1  0
 44 45  1  0
 45 46  1  1
 45 47  1  0
 47 48  1  0
 48 49  1  0
 49 50  1  0
 50 51  1  0
 37 52  1  0
 52 53  1  0
 53 54  1  0
 54 55  1  0
 55 56  1  6
 55 57  1  0
 57 58  1  0
 58 59  1  0
 59 60  1  0
M  RAD  8   3   2   9   2  14   2  29   2  31   2  36   2  39   2  47   2
M  RAD  1  50   2
M  END
>  <fragInfo>  (1) 
1 2
3
4
5 6
7
8
9
10
11
12
13
14 15
16
17
18
19 20
21
22
23 24
25 26
27
28
29
30
31
32
33 34
35
36
37
38
39
40
41
42
43
44
45 46
47
48
49
50 51
52
53
54
55 56
57
58
59 60


>  <torsionInfo>  (1) 
2 3 0 1
3 4 1 2
4 5 2 3
5 7 3 4
7 8 4 5
8 9 5 6
8 25 5 19
9 10 6 7
10 11 7 8
11 12 8 9
11 16 8 12
12 13 9 10
13 14 10 11
16 17 12 13
17 18 13 14
18 19 14 15
19 21 15 16
21 22 16 17
22 23 17 18
25 27 19 20
27 28 20 21
28 29 21 22
29 30 22 23
30 31 23 24
31 32 24 25
32 33 25 26
33 35 26 27
35 36 27 28
36 37 28 29
37 38 29 30
37 52 29 42
38 39 30 31
39 40 31 32
40 41 32 33
41 42 33 34
42 43 34 35
43 44 35 36
44 45 36 37
45 47 37 38
47 48 38 39
48 49 39 40
49 50 40 41
52 53 42 43
53 54 43 44
54 55 44 45
55 57 45 46
57 58 46 47
58 59 47 48


>  <atomInfo>  (1) 
1  0.03885774C 
2  -0.3512729OA
3  0.21124673C 
4  -0.3187383OA
5  0.15883529C 
6  -0.0132875C 
7  -0.3398542OA
8  0.13555522C 
9  0.00015993C 
10 -0.0396611C 
11 0.00926265C 
12 0.05220994C 
13 -0.3754427OA
14 0.08055306C 
15 -0.0361162C 
16 0.08746200C 
17 -0.2311854OA
18 -0.1720296OA
19 0.32645998C 
20 -0.3421796OA
21 -0.1693496OA
22 -0.1972807OA
23 0.22157539C 
24 -0.2166058F 
25 0.23648042P 
26 -0.3460766OA
27 -0.1793188OA
28 -0.1927987OA
29 0.24831553C 
30 -0.3101578OA
31 0.21722986C 
32 -0.2909179OA
33 0.31178340C 
34 -0.1837754F 
35 -0.3191971OA
36 0.10114471C 
37 0.02721999C 
38 -0.1052148P 
39 0.00962931C 
40 0.05817882C 
41 -0.3571821OA
42 0.04010969P 
43 -0.0453829P 
44 -0.0532790P 
45 0.15196910C 
46 -0.2393122F 
47 0.16055614C 
48 -0.2239439OA
49 -0.1984154OA
50 0.24279254C 
51 -0.3616909OA
52 -0.0847976P 
53 -0.0730441P 
54 -0.0576656P 
55 0.11800305C 
56 -0.3817949OA
57 0.09429111P 
58 -0.1810591OA
59 -0.0203682OA
60 -0.0146909F 


$$$$
