
     RDKit          3D

 17 17  0  0  0  0  0  0  0  0999 V2000
   -5.1400    0.9740    0.7669 O   0  0  0  0  0  0  0  0  0  0  0  0
   -4.1199    1.9118    0.5520 C   0  0  0  0  0  0  0  0  0  0  0  0
   -2.8887    1.2893   -0.0472 C   0  0  0  0  0  3  0  0  0  0  0  0
   -3.1749    0.1234   -0.8429 N   0  0  0  0  0  0  0  0  0  0  0  0
   -2.9218   -1.0429   -0.0350 C   0  0  2  0  0  0  0  0  0  0  0  0
   -4.1516   -1.6045    0.6153 C   0  0  0  0  0  0  0  0  0  0  0  0
   -1.8751   -0.8377    0.8798 O   0  0  0  0  0  0  0  0  0  0  0  0
   -0.7220   -1.1440    0.1651 C   0  0  1  0  0  0  0  0  0  0  0  0
   -0.5587   -0.0473   -0.8449 O   0  0  0  0  0  0  0  0  0  0  0  0
    0.4875   -0.4618    0.1327 C   0  0  2  0  0  0  0  0  0  0  0  0
    1.5406   -1.0090   -0.6021 O   0  0  0  0  0  0  0  0  0  0  0  0
    2.5339   -0.1666   -0.6908 O   0  0  0  0  0  0  0  0  0  0  0  0
    3.3408   -0.3897    0.4364 C   0  0  1  0  0  0  0  0  0  0  0  0
    3.6020   -1.7302    0.5610 F   0  0  0  0  0  0  0  0  0  0  0  0
    4.5111    0.3442    0.2715 O   0  0  0  0  0  0  0  0  0  0  0  0
    4.2130    1.5921    0.5967 O   0  0  0  0  0  0  0  0  0  0  0  0
    5.3237    2.1990    0.9223 O   0  0  0  0  0  0  0  0  0  0  0  0
  1  2  1  0
  2  3  1  0
  3  4  1  0
  4  5  1  0
  5  6  1  1
  5  7  1  0
  8  7  1  1
  8  9  1  0
  8 10  1  0
 10 11  1  6
 11 12  1  0
 12 13  1  0
 13 14  1  6
 13 15  1  0
 15 16  1  0
 16 17  1  0
 10  9  1  0
M  RAD  1   3   2
M  END
>  <fragInfo>  (1) 
8 9 10
1 2
3
4
5 6
7
11
12
13 14
15
16 17


>  <torsionInfo>  (1) 
7 8 5 0
10 11 0 6
2 3 1 2
3 4 2 3
4 5 3 4
5 7 4 5
11 12 6 7
12 13 7 8
13 15 8 9
15 16 9 10


>  <atomInfo>  (1) 
1  -0.3946892OA
2  0.06011303C 
3  0.04988553C 
4  -0.2855199NA
5  0.10856619C 
6  -0.0249186C 
7  -0.3293618OA
8  0.21639112C 
9  -0.3102682OA
10 0.24515451C 
11 -0.1933152OA
12 -0.1641629OA
13 0.36615652C 
14 -0.1782948F 
15 -0.1368807OA
16 -0.0654112OA
17 -0.2209565OA


$$$$
