
     RDKit          3D

 20 19  0  0  0  0  0  0  0  0999 V2000
    2.4427   -4.7190    0.7996 C   0  0  0  0  0  0  0  0  0  0  0  0
    2.0436   -3.4060    0.3976 O   0  0  0  0  0  0  0  0  0  0  0  0
    0.8820   -3.3074   -0.3346 C   0  0  0  0  0  0  0  0  0  0  0  0
    0.3993   -2.1633   -0.7248 C   0  0  0  0  0  0  0  0  0  0  0  0
    1.0887   -0.8995   -0.3934 C   0  0  0  0  0  0  0  0  0  0  0  0
    0.6010    0.2655   -0.7884 C   0  0  0  0  0  0  0  0  0  0  0  0
   -0.6485    0.4070   -1.5788 C   0  0  0  0  0  0  0  0  0  0  0  0
   -1.6206    1.2337   -0.8080 C   0  0  2  0  0  0  0  0  0  0  0  0
   -2.0082    0.6755    0.5197 C   0  0  0  0  0  0  0  0  0  0  0  0
   -2.6616   -0.6929    0.4103 C   0  0  0  0  0  0  0  0  0  0  0  0
   -3.0018   -1.1367    1.8283 C   0  0  0  0  0  0  0  0  0  0  0  0
   -3.6589   -2.4952    1.8141 C   0  0  0  0  0  0  0  0  0  0  0  0
   -2.7563    1.7404   -1.5957 C   0  0  0  0  0  0  0  0  0  0  0  0
   -2.5553    2.6254   -2.7731 C   0  0  0  0  0  0  0  0  0  0  0  0
   -3.9054    1.4327   -1.2842 O   0  0  0  0  0  0  0  0  0  0  0  0
    1.3389    1.4247   -0.4186 N   0  0  0  0  0  0  0  0  0  0  0  0
    2.4289    1.4121    0.5066 C   0  0  0  0  0  0  0  0  0  0  0  0
    2.9665    2.8157    0.6533 C   0  0  0  0  0  0  0  0  0  0  0  0
    4.1010    2.8957    1.5958 C   0  0  0  0  0  0  0  0  0  0  0  0
    4.5241    1.8916    2.1743 O   0  0  0  0  0  0  0  0  0  0  0  0
  1  2  1  0
  2  3  1  0
  3  4  2  3
  4  5  1  0
  5  6  2  3
  6  7  1  0
  8  7  1  6
  8  9  1  0
  9 10  1  0
 10 11  1  0
 11 12  1  0
  8 13  1  0
 13 14  1  0
 13 15  2  0
  6 16  1  0
 16 17  1  0
 17 18  1  0
 18 19  1  0
 19 20  2  0
M  END
>  <fragInfo>  (1) 
13 14 15
1 2
3 4
5 6
7
8
9
10
11 12
16
17
18
19 20


>  <torsionInfo>  (1) 
8 13 5 0
2 3 1 2
4 5 2 3
6 7 3 4
6 16 3 9
7 8 4 5
8 9 5 6
9 10 6 7
10 11 7 8
16 17 9 10
17 18 10 11
18 19 11 12


>  <atomInfo>  (1) 
1  0.07660056C 
2  -0.5043667OA
3  0.08247401C 
4  -0.0258384C 
5  -0.0401444C 
6  0.01150265C 
7  -0.0032233C 
8  0.02276209C 
9  -0.0431451C 
10 -0.0528681C 
11 -0.0561481C 
12 -0.0653820C 
13 0.13279343C 
14 -0.0053587C 
15 -0.2997029OA
16 -0.3878909N 
17 0.02098043C 
18 0.02039181C 
19 0.12124418C 
20 -0.3033295OA


$$$$
