
     RDKit          3D

 78 81  0  0  0  0  0  0  0  0999 V2000
  -13.7781    2.0332    1.1168 C   0  0  0  0  0  0  0  0  0  0  0  0
  -14.3170    0.6231    0.9378 C   0  0  0  0  0  0  0  0  0  0  0  0
  -15.8377    0.7033    1.0259 C   0  0  0  0  0  0  0  0  0  0  0  0
  -13.9089    0.1102   -0.4514 C   0  0  0  0  0  0  0  0  0  0  0  0
  -12.3972    0.1081   -0.5341 C   0  0  0  0  0  0  0  0  0  0  0  0
  -11.8059   -0.8174    0.5315 C   0  0  0  0  0  0  0  0  0  0  0  0
  -12.3066   -2.2208    0.3003 C   0  0  1  0  0  0  0  0  0  0  0  0
  -13.7973   -2.3563    0.3613 C   0  0  0  0  0  0  0  0  0  0  0  0
  -11.6730   -2.9185   -0.8656 C   0  0  0  0  0  3  0  0  0  0  0  0
  -10.2163   -3.1312   -0.6773 C   0  0  0  0  0  0  0  0  0  0  0  0
   -9.4457   -1.8415   -0.5329 C   0  0  0  0  0  0  0  0  0  0  0  0
   -7.9851   -2.1042   -0.3279 C   0  0  2  0  0  0  0  0  0  0  0  0
   -7.7698   -2.9355    0.9371 C   0  0  0  0  0  0  0  0  0  0  0  0
   -7.1885   -0.8491   -0.2834 C   0  0  0  0  0  0  0  0  0  0  0  0
   -7.5848    0.0936    0.7789 C   0  0  2  0  0  0  0  0  0  0  0  0
   -8.8565    0.6628    0.7700 N   0  0  0  0  0  0  0  0  0  0  0  0
   -9.2551    1.5870   -0.1823 C   0  0  0  0  0  0  0  0  0  0  0  0
   -9.4353    1.2803   -1.5900 C   0  0  0  0  0  0  0  0  0  0  0  0
   -8.2026    0.8179   -2.2673 C   0  0  0  0  0  0  0  0  0  0  0  0
   -8.4630    0.5454   -3.6283 O   0  0  0  0  0  0  0  0  0  0  0  0
   -6.4864    0.8252    1.4549 C   0  0  0  0  0  0  0  0  0  0  0  0
   -5.6366    1.6883    0.5855 C   0  0  0  0  0  0  0  0  0  0  0  0
   -4.9453    0.9184   -0.4929 C   0  0  1  0  0  0  0  0  0  0  0  0
   -4.0894    1.7473   -1.3812 C   0  0  0  0  0  0  0  0  0  0  0  0
   -4.3502   -0.3526   -0.0182 C   0  0  1  0  0  0  0  0  0  0  0  0
   -3.6141   -1.2725   -0.9133 C   0  0  0  0  0  0  0  0  0  0  0  0
   -2.9688   -0.6114    0.3246 C   0  0  1  0  0  0  0  0  0  0  0  0
   -1.8223    0.2870   -0.0250 C   0  0  1  0  0  0  0  0  0  0  0  0
   -1.9932    1.6784    0.5992 C   0  0  0  0  0  0  0  0  0  0  0  0
   -0.6453    2.3574    0.5071 C   0  0  0  0  0  0  0  0  0  0  0  0
   -0.7268    3.5446   -0.8597 S   0  0  0  0  0  0  0  0  0  0  0  0
   -0.7967    5.2484   -0.3023 C   0  0  0  0  0  0  0  0  0  0  0  0
   -0.2330    5.4384    1.0750 C   0  0  0  0  0  3  0  0  0  0  0  0
    1.1592    4.8679    1.0752 C   0  0  0  0  0  0  0  0  0  0  0  0
    2.1775    5.7081    1.1919 C   0  0  0  0  0  0  0  0  0  0  0  0
    3.5980    5.2739    1.2068 C   0  0  1  0  0  0  0  0  0  0  0  0
    3.8301    3.8727    0.6679 C   0  0  1  0  0  0  0  0  0  0  0  0
    2.6904    2.9225    0.8056 C   0  0  0  0  0  0  0  0  0  0  0  0
    4.0082    4.4884   -0.7289 C   0  0  0  0  0  0  0  0  0  0  0  0
    4.2536    5.7829   -0.0375 C   0  0  1  0  0  0  0  0  0  0  0  0
    3.7747    7.0308   -0.6542 C   0  0  1  0  0  0  0  0  0  0  0  0
    2.9075    7.8932    0.2649 C   0  0  0  0  0  0  0  0  0  0  0  0
    5.2144    7.5617   -0.5675 C   0  0  0  0  0  0  0  0  0  0  0  0
    5.6462    6.2599    0.1238 C   0  0  0  0  0  3  0  0  0  0  0  0
    6.5478    5.4014   -0.7415 C   0  0  0  0  0  0  0  0  0  0  0  0
    7.8160    5.0193   -0.0166 C   0  0  0  0  0  0  0  0  0  0  0  0
    8.1291    3.5616   -0.3227 C   0  0  0  0  0  0  0  0  0  0  0  0
    9.2935    3.1413    0.5421 C   0  0  0  0  0  0  0  0  0  0  0  0
    9.5546    1.6721    0.3002 C   0  0  0  0  0  0  0  0  0  0  0  0
   10.8964    1.5639   -0.3924 C   0  0  1  0  0  0  0  0  0  0  0  0
   10.9247    2.3905   -1.6565 C   0  0  0  0  0  2  0  0  0  0  0  0
   11.9988    2.0101    0.5398 C   0  0  0  0  0  0  0  0  0  0  0  0
   13.0201    0.8932    0.7199 C   0  0  0  0  0  0  0  0  0  0  0  0
   13.1315    0.2064   -0.6069 C   0  0  0  0  0  0  0  0  0  0  0  0
   12.3193   -0.8445   -0.8416 C   0  0  0  0  0  3  0  0  0  0  0  0
   11.3488   -1.3128    0.1659 C   0  0  0  0  0  0  0  0  0  0  0  0
   10.2288   -2.0482   -0.5064 C   0  0  1  0  0  0  0  0  0  0  0  0
   10.7528   -3.3530   -1.0780 C   0  0  0  0  0  0  0  0  0  0  0  0
    9.1549   -2.3353    0.5218 C   0  0  0  0  0  3  0  0  0  0  0  0
    8.5761   -3.7354    0.2946 C   0  0  0  0  0  0  0  0  0  0  0  0
    7.2901   -3.6797   -0.4815 C   0  0  0  0  0  0  0  0  0  0  0  0
    6.1428   -4.2989    0.2489 C   0  0  2  0  0  0  0  0  0  0  0  0
    6.5782   -4.7309    1.6388 C   0  0  0  0  0  0  0  0  0  0  0  0
    5.5470   -5.4921   -0.4406 C   0  0  0  0  0  3  0  0  0  0  0  0
    5.2850   -6.6080    0.5436 C   0  0  0  0  0  0  0  0  0  0  0  0
    3.7957   -6.7790    0.7217 C   0  0  0  0  0  0  0  0  0  0  0  0
    3.3670   -8.0552   -0.0091 C   0  0  1  0  0  0  0  0  0  0  0  0
    3.6746   -9.2443    0.8680 C   0  0  0  0  0  0  0  0  0  0  0  0
    1.9041   -7.9772   -0.3409 C   0  0  0  0  0  3  0  0  0  0  0  0
    1.5090   -6.5555   -0.6811 C   0  0  0  0  0  0  0  0  0  0  0  0
    1.7199   -5.6285    0.5078 C   0  0  0  0  0  0  0  0  0  0  0  0
    0.7840   -4.4429    0.4644 C   0  0  0  0  0  3  0  0  0  0  0  0
    0.3762   -4.1407    1.8964 C   0  0  0  0  0  0  0  0  0  0  0  0
    1.4766   -3.2037   -0.0636 C   0  0  0  0  0  3  0  0  0  0  0  0
    0.4760   -2.1931   -0.5902 C   0  0  0  0  0  0  0  0  0  0  0  0
   -0.5042   -1.7768    0.4930 C   0  0  0  0  0  0  0  0  0  0  0  0
   -0.5286   -0.2638    0.5407 C   0  0  0  0  0  3  0  0  0  0  0  0
    0.6862    0.2904   -0.1983 C   0  0  0  0  0  0  0  0  0  0  0  0
  1  2  1  0
  2  3  1  0
  2  4  1  0
  4  5  1  0
  5  6  1  0
  6  7  1  0
  7  8  1  6
  7  9  1  0
  9 10  1  0
 10 11  1  0
 11 12  1  0
 12 13  1  1
 12 14  1  0
 15 14  1  6
 15 16  1  0
 16 17  1  0
 17 18  1  0
 18 19  1  0
 19 20  1  0
 15 21  1  0
 21 22  1  0
 22 23  1  0
 23 24  1  1
 23 25  1  0
 25 26  1  6
 27 26  1  6
 27 28  1  0
 28 29  1  1
 29 30  1  0
 30 31  1  0
 31 32  1  0
 32 33  1  0
 33 34  1  0
 34 35  2  3
 36 35  1  6
 36 37  1  0
 37 38  1  6
 37 39  1  0
 40 39  1  6
 40 41  1  0
 41 42  1  1
 41 43  1  0
 43 44  1  0
 44 45  1  0
 45 46  1  0
 46 47  1  0
 47 48  1  0
 48 49  1  0
 49 50  1  0
 50 51  1  6
 50 52  1  0
 52 53  1  0
 53 54  1  0
 54 55  2  3
 55 56  1  0
 56 57  1  0
 57 58  1  1
 57 59  1  0
 59 60  1  0
 60 61  1  0
 61 62  1  0
 62 63  1  1
 62 64  1  0
 64 65  1  0
 65 66  1  0
 66 67  1  0
 67 68  1  1
 67 69  1  0
 69 70  1  0
 70 71  1  0
 71 72  1  0
 72 73  1  0
 72 74  1  0
 74 75  1  0
 75 76  1  0
 76 77  1  0
 77 78  1  0
 27 25  1  0
 77 28  1  0
 40 36  1  0
 44 40  1  0
M  RAD  8   9   2  33   2  44   2  51   3  55   2  59   2  64   2  69   2
M  RAD  3  72   2  74   2  77   2
M  END
>  <fragInfo>  (1) 
28 29 30 31 32 33 34 35 36 37 38 39 40 41 42 43 44 45 46 47 48 49 50 51 52 53 54 55 56 57 58 59 60 61 62 63 64 65 66 67 68 69 70 71 72 73 74 75 76 77 78
1 2 3
4
5
6
7 8
9
10
11
12 13
14
15
16
17
18
19 20
21
22
23 24
25 26 27


>  <torsionInfo>  (1) 
27 28 19 0
2 4 1 2
4 5 2 3
5 6 3 4
6 7 4 5
7 9 5 6
9 10 6 7
10 11 7 8
11 12 8 9
12 14 9 10
14 15 10 11
15 16 11 12
15 21 11 16
16 17 12 13
17 18 13 14
18 19 14 15
21 22 16 17
22 23 17 18
23 25 18 19


>  <atomInfo>  (1) 
1  -0.0627736C 
2  -0.0471324C 
3  -0.0627736C 
4  -0.0509643C 
5  -0.0527983C 
6  -0.0504266C 
7  -0.0411603C 
8  -0.0622342C 
9  -0.0357404C 
10 -0.0496636C 
11 -0.0503691C 
12 -0.0427903C 
13 -0.0624516C 
14 -0.0351757C 
15 0.00696673C 
16 -0.3138853NA
17 -0.0024473C 
18 -0.0172691C 
19 0.04426305C 
20 -0.3963261OA
21 -0.0374913C 
22 -0.0489549C 
23 -0.0410918C 
24 -0.0622330C 
25 -0.0354233C 
26 -0.0464994C 
27 -0.0346238C 
28 -0.0315702C 
29 -0.0404798C 
30 -0.0064370C 
31 -0.1613597SA
32 0.00015008C 
33 -0.0071588C 
34 -0.0836693C 
35 -0.0842370C 
36 -0.0142614C 
37 -0.0368194C 
38 -0.0619039C 
39 -0.0430366C 
40 -0.0141383C 
41 -0.0368905C 
42 -0.0619143C 
43 -0.0433132C 
44 -0.0167618C 
45 -0.0464681C 
46 -0.0527347C 
47 -0.0532746C 
48 -0.0530310C 
49 -0.0501508C 
50 -0.0377192C 
51 -0.0317893C 
52 -0.0466605C 
53 -0.0342059C 
54 -0.0810319C 
55 -0.0488328C 
56 -0.0250809C 
57 -0.0371057C 
58 -0.0619159C 
59 -0.0354120C 
60 -0.0496426C 
61 -0.0501520C 
62 -0.0411500C 
63 -0.0622340C 
64 -0.0357401C 
65 -0.0496542C 
66 -0.0501522C 
67 -0.0411498C 
68 -0.0622340C 
69 -0.0357294C 
70 -0.0493688C 
71 -0.0467693C 
72 -0.0237936C 
73 -0.0588346C 
74 -0.0320784C 
75 -0.0490715C 
76 -0.0467582C 
77 -0.0237741C 
78 -0.0588343C 


$$$$
