
     RDKit          3D

 34 38  0  0  0  0  0  0  0  0999 V2000
    5.8618    1.0268    1.9622 C   0  0  0  0  0  0  0  0  0  0  0  0
    4.6848    0.6337    1.2398 O   0  0  0  0  0  0  0  0  0  0  0  0
    4.5139   -0.4991    0.5151 C   0  0  0  0  0  0  0  0  0  0  0  0
    5.4451   -1.4647    0.3338 C   0  0  0  0  0  0  0  0  0  0  0  0
    5.2278   -2.5681   -0.4205 C   0  0  0  0  0  0  0  0  0  0  0  0
    3.9884   -2.7631   -1.0604 C   0  0  0  0  0  0  0  0  0  0  0  0
    3.0226   -1.8071   -0.8969 C   0  0  0  0  0  0  0  0  0  0  0  0
    3.2530   -0.6487   -0.0982 C   0  0  0  0  0  0  0  0  0  0  0  0
    2.2207    0.2182    0.0233 O   0  0  0  0  0  0  0  0  0  0  0  0
    0.9206   -0.0922   -0.6655 C   0  0  1  0  0  0  0  0  0  0  0  0
    0.0012   -0.2141    0.5500 C   0  0  0  0  0  0  0  0  0  0  0  0
   -1.2696   -0.5049    0.6130 N   0  0  0  0  0  0  0  0  0  0  0  0
   -1.7621   -1.8813    0.1008 C   0  0  2  0  0  0  0  0  0  0  0  0
   -0.4988   -2.4313    0.0350 C   0  0  0  0  0  0  0  0  0  0  0  0
   -0.1285   -2.1460    1.5606 C   0  0  0  0  0  0  0  0  0  0  0  0
   -1.3383   -1.3538    1.9413 C   0  0  1  0  0  0  0  0  0  0  0  0
   -1.3916   -0.3460    2.9006 C   0  0  0  0  0  0  0  0  0  0  0  0
   -2.7384    0.4263    2.6532 C   0  0  0  0  0  3  0  0  0  0  0  0
   -3.5434   -0.2188    1.6529 O   0  0  0  0  0  0  0  0  0  0  0  0
   -2.3617    1.7689    2.1129 C   0  0  0  0  0  0  0  0  0  0  0  0
   -3.0678    2.7112    1.5226 C   0  0  0  0  0  0  0  0  0  0  0  0
   -3.8522    2.7817    0.3132 C   0  0  0  0  0  0  0  0  0  0  0  0
   -4.0348    1.9310   -0.7393 C   0  0  0  0  0  0  0  0  0  0  0  0
   -3.9141    0.4349   -0.6968 C   0  0  0  0  0  0  0  0  0  0  0  0
   -3.4517   -0.3369    0.2519 C   0  0  0  0  0  0  0  0  0  0  0  0
   -2.8380   -1.3224   -0.7227 C   0  0  1  0  0  0  0  0  0  0  0  0
   -2.3085   -0.6107   -1.9652 C   0  0  0  0  0  3  0  0  0  0  0  0
   -3.2706   -0.0918   -2.7764 O   0  0  0  0  0  0  0  0  0  0  0  0
   -3.9559   -1.1513   -3.3797 C   0  0  0  0  0  2  0  0  0  0  0  0
    0.5697    1.2090   -1.3876 C   0  0  2  0  0  0  0  0  0  0  0  0
    1.5567    1.5356   -2.4231 C   0  0  0  0  0  0  0  0  0  0  0  0
    2.2734    2.5910   -1.9362 C   0  0  0  0  0  0  0  0  0  0  0  0
    1.7213    2.9003   -0.5705 C   0  0  0  0  0  3  0  0  0  0  0  0
    0.4651    2.2836   -0.5429 O   0  0  0  0  0  0  0  0  0  0  0  0
  1  2  1  0
  2  3  1  0
  3  4  2  0
  4  5  1  0
  5  6  2  0
  6  7  1  0
  7  8  2  0
  8  9  1  0
  9 10  1  0
 10 11  1  1
 11 12  1  0
 12 13  1  0
 13 14  1  6
 14 15  1  0
 16 15  1  1
 16 17  1  0
 17 18  1  0
 18 19  1  0
 18 20  1  0
 20 21  2  3
 21 22  1  0
 22 23  2  3
 23 24  1  0
 24 25  2  3
 25 26  1  0
 26 27  1  6
 27 28  1  0
 28 29  1  0
 10 30  1  0
 30 31  1  0
 31 32  2  0
 32 33  1  0
 33 34  1  0
  8  3  1  0
 16 12  1  0
 26 13  1  0
 25 19  1  0
 30 34  1  1
M  RAD  4  18   2  27   2  29   3  33   2
M  END
>  <fragInfo>  (1) 
12 13 14 15 16 17 18 19 20 21 22 23 24 25 26
1 2
3 4 5 6 7 8
9
10
11
27
28 29
30 31 32 33 34


>  <torsionInfo>  (1) 
11 12 5 0
26 27 0 6
2 3 1 2
8 9 2 3
9 10 3 4
10 11 4 5
10 30 4 8
27 28 6 7


>  <atomInfo>  (1) 
1  0.07771725C 
2  -0.4928696OA
3  0.16025057A 
4  -0.0160923A 
5  -0.0583064A 
6  -0.0583057A 
7  -0.0160537A 
8  0.16131108A 
9  -0.4821300OA
10 0.14117217C 
11 0.03889368C 
12 -0.2926451NA
13 0.02253680C 
14 -0.0352190C 
15 -0.0358448C 
16 0.01436602C 
17 0.01080841C 
18 0.17140907C 
19 -0.4824318OA
20 -0.0367394C 
21 -0.0621607C 
22 -0.0623132C 
23 -0.0589278C 
24 -0.0237700C 
25 0.10489658C 
26 0.06092324C 
27 0.09642566C 
28 -0.3657878OA
29 0.11561259C 
30 0.11472022C 
31 -0.0534503C 
32 -0.0542503C 
33 0.10643639C 
34 -0.3598567OA


$$$$
