
     RDKit          3D

 24 25  0  0  0  0  0  0  0  0999 V2000
    3.1961   -1.8320    1.2552 C   0  0  0  0  0  0  0  0  0  0  0  0
    2.7195   -0.4285    0.9898 C   0  0  1  0  0  0  0  0  0  0  0  0
    3.8375    0.4094    0.4187 C   0  0  0  0  0  0  0  0  0  0  0  0
    4.1182    0.0665   -1.0186 C   0  0  2  0  0  0  0  0  0  0  0  0
    4.9763    1.0440   -1.5260 O   0  0  0  0  0  0  0  0  0  0  0  0
    2.8521    0.1217   -1.8344 C   0  0  2  0  0  0  0  0  0  0  0  0
    2.2934    1.3937   -1.6596 O   0  0  0  0  0  0  0  0  0  0  0  0
    1.8290   -0.8650   -1.2832 C   0  0  1  0  0  0  0  0  0  0  0  0
    2.4344   -2.1256   -1.2387 O   0  0  0  0  0  0  0  0  0  0  0  0
    1.4813   -0.3973    0.1043 C   0  0  1  0  0  0  0  0  0  0  0  0
    0.4756   -1.2009    0.7369 N   0  0  0  0  0  0  0  0  0  0  0  0
   -0.8833   -0.8920    0.3422 C   0  0  1  0  0  0  0  0  0  0  0  0
   -1.7849   -1.2950    1.4144 C   0  0  0  0  0  0  0  0  0  0  0  0
   -3.0163   -0.5067    1.6323 C   0  0  1  0  0  0  0  0  0  0  0  0
   -2.7396    0.7519    2.1859 O   0  0  0  0  0  0  0  0  0  0  0  0
   -3.9451   -0.4245    0.4595 C   0  0  1  0  0  0  0  0  0  0  0  0
   -4.8680    0.5986    0.6605 O   0  0  0  0  0  0  0  0  0  0  0  0
   -3.2526   -0.3413   -0.8661 C   0  0  1  0  0  0  0  0  0  0  0  0
   -4.2432   -0.0382   -1.8148 O   0  0  0  0  0  0  0  0  0  0  0  0
   -2.2632    0.7863   -0.9058 C   0  0  2  0  0  0  0  0  0  0  0  0
   -1.9773    1.0192   -2.2611 O   0  0  0  0  0  0  0  0  0  0  0  0
   -0.9624    0.4863   -0.2036 C   0  0  1  0  0  0  0  0  0  0  0  0
   -0.6970    1.4797    0.7272 O   0  0  0  0  0  0  0  0  0  0  0  0
    0.4197    2.1899    0.3893 N   0  0  0  0  0  0  0  0  0  0  0  0
  2  1  1  6
  2  3  1  0
  3  4  1  0
  4  5  1  6
  4  6  1  0
  6  7  1  1
  6  8  1  0
  8  9  1  1
  8 10  1  0
 10 11  1  1
 12 11  1  1
 12 13  1  0
 13 14  1  0
 14 15  1  6
 14 16  1  0
 16 17  1  1
 16 18  1  0
 18 19  1  6
 18 20  1  0
 20 21  1  6
 20 22  1  0
 22 23  1  1
 23 24  1  0
 10  2  1  0
 22 12  1  0
M  END
>  <fragInfo>  (1) 
12 13 14 15 16 17 18 19 20 21 22
1 2 3 4 5 6 7 8 9 10
11
23 24


>  <torsionInfo>  (1) 
11 12 2 0
22 23 0 3
10 11 1 2


>  <atomInfo>  (1) 
1  -0.0608233C 
2  -0.0236278C 
3  -0.0201755C 
4  0.08280077C 
5  -0.3903155OA
6  0.10722523C 
7  -0.3876533OA
8  0.09792986C 
9  -0.3886791OA
10 0.03843493C 
11 -0.3054492NA
12 0.04062643C 
13 -0.0061377C 
14 0.08411256C 
15 -0.3902621OA
16 0.10838938C 
17 -0.3876078OA
18 0.11092907C 
19 -0.3874990OA
20 0.11215233C 
21 -0.3874477OA
22 0.12246582C 
23 -0.2968281OA
24 -0.2153282NA


$$$$
