
     RDKit          3D

 24 25  0  0  0  0  0  0  0  0999 V2000
    1.4838   -1.0384    1.6719 C   0  0  0  0  0  0  0  0  0  0  0  0
    1.7849    0.4003    1.2738 C   0  0  1  0  0  0  0  0  0  0  0  0
    3.2610    0.6066    1.3729 C   0  0  0  0  0  0  0  0  0  0  0  0
    3.9402   -0.2374    0.2999 C   0  0  2  0  0  0  0  0  0  0  0  0
    5.3139   -0.1926    0.5185 O   0  0  0  0  0  0  0  0  0  0  0  0
    3.5532    0.4365   -1.0129 C   0  0  2  0  0  0  0  0  0  0  0  0
    3.7165    1.8127   -0.7805 O   0  0  0  0  0  0  0  0  0  0  0  0
    2.0877    0.1581   -1.2135 C   0  0  1  0  0  0  0  0  0  0  0  0
    1.9536   -1.2286   -1.3862 O   0  0  0  0  0  0  0  0  0  0  0  0
    1.2180    0.6718   -0.1011 C   0  0  1  0  0  0  0  0  0  0  0  0
   -0.0213   -0.0807   -0.1504 N   0  0  0  0  0  0  0  0  0  0  0  0
   -1.0302    0.5203   -0.9850 C   0  0  1  0  0  0  0  0  0  0  0  0
   -2.1738   -0.4974   -0.9735 C   0  0  1  0  0  0  0  0  0  0  0  0
   -1.5751   -1.8502   -1.3323 C   0  0  0  0  0  0  0  0  0  0  0  0
   -1.9487   -2.8744   -0.2670 C   0  0  0  0  0  3  0  0  0  0  0  0
   -3.4514   -2.7815   -0.1009 C   0  0  0  0  0  0  0  0  0  0  0  0
   -4.0074   -3.0690   -1.3489 O   0  0  0  0  0  0  0  0  0  0  0  0
   -2.5191   -0.4414    0.5149 C   0  0  1  0  0  0  0  0  0  0  0  0
   -1.5078   -1.1694    1.1651 O   0  0  0  0  0  0  0  0  0  0  0  0
   -2.2862    1.0071    0.9277 C   0  0  2  0  0  0  0  0  0  0  0  0
   -3.4424    1.5923    1.4168 O   0  0  0  0  0  0  0  0  0  0  0  0
   -1.7506    1.6684   -0.3042 C   0  0  1  0  0  0  0  0  0  0  0  0
   -0.9595    2.7653   -0.0743 O   0  0  0  0  0  0  0  0  0  0  0  0
   -1.6392    3.8215   -0.5010 O   0  0  0  0  0  0  0  0  0  0  0  0
  2  1  1  6
  2  3  1  0
  3  4  1  0
  4  5  1  1
  4  6  1  0
  6  7  1  1
  6  8  1  0
  8  9  1  1
  8 10  1  0
 10 11  1  1
 12 11  1  1
 12 13  1  0
 13 14  1  1
 14 15  1  0
 15 16  1  0
 16 17  1  0
 13 18  1  0
 18 19  1  1
 18 20  1  0
 20 21  1  6
 20 22  1  0
 22 23  1  1
 23 24  1  0
 10  2  1  0
 22 12  1  0
M  RAD  1  15   2
M  END
>  <fragInfo>  (1) 
1 2 3 4 5 6 7 8 9 10
11
12 13 18 19 20 21 22
14
15
16 17
23 24


>  <torsionInfo>  (1) 
10 11 0 1
11 12 1 2
13 14 2 3
22 23 2 6
14 15 3 4
15 16 4 5


>  <atomInfo>  (1) 
1  -0.0608233C 
2  -0.0236276C 
3  -0.0201755C 
4  0.08280077C 
5  -0.3903155OA
6  0.10722523C 
7  -0.3876533OA
8  0.09793003C 
9  -0.3886791OA
10 0.03844522C 
11 -0.3051797NA
12 0.04469926C 
13 0.00593141C 
14 -0.0408783C 
15 -0.0126617C 
16 0.04624017C 
17 -0.3960754OA
18 0.08702570C 
19 -0.3899682OA
20 0.11102184C 
21 -0.3874989OA
22 0.13657760C 
23 -0.2315668OA
24 -0.2513802OA


$$$$
