
     RDKit          3D

 24 25  0  0  0  0  0  0  0  0999 V2000
   -1.9411   -2.7611   -0.1514 C   0  0  0  0  0  0  0  0  0  0  0  0
   -0.8932   -1.9634   -0.9168 C   0  0  1  0  0  0  0  0  0  0  0  0
   -1.5700   -1.2306   -1.9393 N   0  0  0  0  0  0  0  0  0  0  0  0
   -0.6785   -0.5193   -2.8278 C   0  0  0  0  0  0  0  0  0  0  0  0
    0.3223    0.3284   -2.0834 C   0  0  0  0  0  0  0  0  0  0  0  0
    0.8500   -0.2721   -0.8418 C   0  0  0  0  0  0  0  0  0  0  0  0
   -0.1505   -1.0252   -0.0066 C   0  0  2  0  0  0  0  0  0  0  0  0
    0.5208   -1.8394    1.0513 C   0  0  0  0  0  0  0  0  0  0  0  0
    1.4640   -2.8016    0.5829 N   0  0  0  0  0  0  0  0  0  0  0  0
    2.7091   -2.4703   -0.0201 C   0  0  0  0  0  0  0  0  0  0  0  0
    3.3052   -1.3292    0.2370 C   0  0  0  0  0  0  0  0  0  0  0  0
    4.5808   -0.9588   -0.3628 C   0  0  0  0  0  0  0  0  0  0  0  0
    5.1496    0.2020   -0.0775 C   0  0  0  0  0  0  0  0  0  0  0  0
    4.4828    1.1155    0.8502 C   0  0  0  0  0  0  0  0  0  0  0  0
    5.0289    2.2683    1.1458 C   0  0  0  0  0  0  0  0  0  0  0  0
   -1.1259   -0.0641    0.6576 C   0  0  0  0  0  0  0  0  0  0  0  0
   -0.3509    0.8689    1.5688 C   0  0  0  0  0  0  0  0  0  0  0  0
   -2.1268   -0.7804    1.5094 C   0  0  0  0  0  0  0  0  0  0  0  0
   -1.8299    0.6777   -0.4438 C   0  0  0  0  0  0  0  0  0  0  0  0
   -2.8048    1.6464    0.0759 C   0  0  0  0  0  0  0  0  0  0  0  0
   -3.6163    2.4895   -0.7137 N   0  0  0  0  0  0  0  0  0  0  0  0
   -4.0669    3.5371    0.0524 O   0  0  0  0  0  0  0  0  0  0  0  0
   -4.1443    2.9610    1.3383 C   0  0  0  0  0  0  0  0  0  0  0  0
   -3.1145    1.9208    1.3154 N   0  0  0  0  0  0  0  0  0  0  0  0
  2  1  1  1
  2  3  1  0
  3  4  1  0
  4  5  1  0
  5  6  1  0
  6  7  1  0
  7  8  1  1
  8  9  1  0
  9 10  1  0
 10 11  2  3
 11 12  1  0
 12 13  2  3
 13 14  1  0
 14 15  2  0
  7 16  1  0
 16 17  1  0
 16 18  1  0
 16 19  1  0
 19 20  1  0
 20 21  1  0
 21 22  1  0
 22 23  1  0
 23 24  1  0
  7  2  1  0
 20 24  2  0
M  END
>  <fragInfo>  (1) 
1 2 3 4 5 6 7
8
9
10 11
12 13
14 15
16 17 18
19
20 21 22 23 24


>  <torsionInfo>  (1) 
7 8 0 1
7 16 0 6
8 9 1 2
9 10 2 3
11 12 3 4
13 14 4 5
16 19 6 7
19 20 7 8


>  <atomInfo>  (1) 
1  -0.0491322C 
2  0.01172460C 
3  -0.3136142NA
4  -0.0045958C 
5  -0.0399864C 
6  -0.0426871C 
7  0.00822840C 
8  0.02176680C 
9  -0.3902526N 
10 -0.0035928C 
11 -0.0465032C 
12 -0.0608555C 
13 -0.0628036C 
14 -0.0694929C 
15 -0.0990658C 
16 -0.0195240C 
17 -0.0588166C 
18 -0.0588166C 
19 0.01275730C 
20 0.12385564C 
21 -0.2511111N 
22 -0.2514717OA
23 0.16624080C 
24 -0.2398101NA


$$$$
