
     RDKit          3D

  9  9  0  0  0  0  0  0  0  0999 V2000
   -1.7729    0.4713    0.7103 C   0  0  0  0  0  0  0  0  0  0  0  0
   -1.9186   -0.8300    0.2733 O   0  0  0  0  0  0  0  0  0  0  0  0
   -0.6792   -1.4184    0.1416 C   0  0  0  0  0  3  0  0  0  0  0  0
   -0.0672   -0.8956   -0.9974 O   0  0  0  0  0  0  0  0  0  0  0  0
    0.8333    0.1010   -0.6914 C   0  0  2  0  0  0  0  0  0  0  0  0
    1.8401   -0.4806    0.2916 C   0  0  0  0  0  0  0  0  0  0  0  0
    2.7845    0.4758    0.6463 O   0  0  0  0  0  0  0  0  0  0  0  0
    0.1768    1.3199   -0.1003 C   0  0  0  0  0  3  0  0  0  0  0  0
   -1.1967    1.2567   -0.2740 O   0  0  0  0  0  0  0  0  0  0  0  0
  1  2  1  0
  2  3  1  0
  3  4  1  0
  4  5  1  0
  5  6  1  1
  6  7  1  0
  5  8  1  0
  8  9  1  0
  9  1  1  0
M  RAD  2   3   2   8   2
M  END
>  <fragInfo>  (1) 
1 2 3 4 5 8 9
6 7


>  <torsionInfo>  (1) 
5 6 0 1


>  <atomInfo>  (1) 
1  0.15029477C 
2  -0.3212249OA
3  0.21170572C 
4  -0.3392599OA
5  0.11278653C 
6  0.07214639C 
7  -0.3935663OA
8  0.11772442C 
9  -0.3464348OA


$$$$
