
     RDKit          3D

 26 27  0  0  0  0  0  0  0  0999 V2000
    5.6287   -0.3392   -1.0375 C   0  0  0  0  0  0  0  0  0  0  0  0
    4.1750   -0.6495   -0.7341 C   0  0  0  0  0  0  0  0  0  0  0  0
    4.0850   -1.0964    0.7134 C   0  0  0  0  0  0  0  0  0  0  0  0
    3.7570   -1.7539   -1.6807 C   0  0  0  0  0  0  0  0  0  0  0  0
    3.3783    0.5953   -0.8975 C   0  0  0  0  0  0  0  0  0  0  0  0
    1.9292    0.4648   -0.6367 C   0  0  1  0  0  0  0  0  0  0  0  0
    1.2565    1.7987   -0.8407 C   0  0  1  0  0  0  0  0  0  0  0  0
    1.4347    2.3071   -2.2459 C   0  0  0  0  0  0  0  0  0  0  0  0
   -0.0818    1.8832   -0.3659 N   0  0  0  0  0  0  0  0  0  0  0  0
   -0.2388    2.2875    1.0079 C   0  0  0  0  0  0  0  0  0  0  0  0
   -1.2976    1.3778    1.6667 C   0  0  0  0  0  0  0  0  0  0  0  0
   -1.0876    0.0525    1.0527 C   0  0  1  0  0  0  0  0  0  0  0  0
   -1.4183    0.0151   -0.4187 C   0  0  0  0  0  0  0  0  0  0  0  0
   -2.7633    0.3612   -0.5388 O   0  0  0  0  0  0  0  0  0  0  0  0
   -3.1598    0.3597   -1.7929 O   0  0  0  0  0  0  0  0  0  0  0  0
   -4.3243    0.9702   -1.8678 O   0  0  0  0  0  0  0  0  0  0  0  0
   -5.3127    0.0929   -2.0477 O   0  0  0  0  0  0  0  0  0  0  0  0
    0.2915   -0.3936    1.3741 C   0  0  0  0  0  0  0  0  0  0  0  0
    1.1744    0.1759    1.9469 O   0  0  0  0  0  0  0  0  0  0  0  0
    1.2590   -0.6829   -1.1929 C   0  0  0  0  0  0  0  0  0  0  0  0
    0.5818   -1.6504   -0.6361 C   0  0  0  0  0  0  0  0  0  0  0  0
    0.3527   -1.7616    0.8125 C   0  0  2  0  0  0  0  0  0  0  0  0
   -1.0699   -2.2862    1.1093 C   0  0  0  0  0  0  0  0  0  0  0  0
   -1.8224   -1.0913    1.6510 C   0  0  0  0  0  0  0  0  0  0  0  0
   -2.8379   -1.0989    2.4308 C   0  0  0  0  0  0  0  0  0  0  0  0
   -3.8893   -0.9721    3.1685 C   0  0  0  0  0  0  0  0  0  0  0  0
  1  2  1  0
  2  3  1  0
  2  4  1  0
  2  5  1  0
  6  5  1  6
  6  7  1  0
  7  8  1  6
  7  9  1  0
  9 10  1  0
 10 11  1  0
 11 12  1  0
 12 13  1  6
 13 14  1  0
 14 15  1  0
 15 16  1  0
 16 17  1  0
 12 18  1  0
 18 19  2  0
  6 20  1  0
 20 21  2  3
 21 22  1  0
 22 23  1  6
 23 24  1  0
 24 25  2  0
 25 26  2  0
 24 12  1  0
 22 18  1  0
M  END
>  <fragInfo>  (1) 
6 7 8 9 10 11 12 18 19 20 21 22 23 24 25 26
1 2 3 4
5
13
14
15
16 17


>  <torsionInfo>  (1) 
5 6 2 0
12 13 0 3
2 5 1 2
13 14 3 4
14 15 4 5
15 16 5 6


>  <atomInfo>  (1) 
1  -0.0601516C 
2  -0.0376438C 
3  -0.0601516C 
4  -0.0601516C 
5  -0.0405656C 
6  -0.0076722C 
7  0.01016991C 
8  -0.0491882C 
9  -0.3136224NA
10 -0.0032359C 
11 -0.0211696C 
12 0.08566605C 
13 0.10243042C 
14 -0.2023933OA
15 -0.0366931OA
16 -0.0393417OA
17 -0.2187763OA
18 0.15285939C 
19 -0.2979126OA
20 -0.0831267C 
21 -0.0773708C 
22 0.04103198C 
23 -0.0099590C 
24 -0.0118094C 
25 -0.1283970C 
26 -0.0565713C 


$$$$
