
     RDKit          3D

 26 26  0  0  0  0  0  0  0  0999 V2000
    4.8520    0.9221    1.8378 C   0  0  0  0  0  0  0  0  0  0  0  0
    4.3258    1.9476    1.0517 O   0  0  0  0  0  0  0  0  0  0  0  0
    3.4944    1.3390    0.1050 C   0  0  0  0  0  3  0  0  0  0  0  0
    4.1709    0.2142   -0.3754 O   0  0  0  0  0  0  0  0  0  0  0  0
    3.3954   -0.3310   -1.3855 C   0  0  2  0  0  0  0  0  0  0  0  0
    3.2730    0.5758   -2.5791 C   0  0  0  0  0  0  0  0  0  0  0  0
    2.1102   -0.8426   -0.8482 C   0  0  0  0  0  3  0  0  0  0  0  0
    0.9049   -0.1382   -1.4062 C   0  0  1  0  0  0  0  0  0  0  0  0
    0.8710   -0.4063   -2.8195 N   0  0  0  0  0  0  0  0  0  0  0  0
   -0.4706   -0.7345   -3.2907 C   0  0  0  0  0  2  0  0  0  0  0  0
   -0.3039   -0.6333   -0.6651 C   0  0  1  0  0  0  0  0  0  0  0  0
    0.0353   -1.7236    0.3154 C   0  0  1  0  0  0  0  0  0  0  0  0
    1.1206   -1.2648    1.2735 C   0  0  0  0  0  0  0  0  0  0  0  0
   -1.0894   -2.0092    1.0694 O   0  0  0  0  0  0  0  0  0  0  0  0
   -1.8439   -2.9280    0.3555 C   0  0  0  0  0  3  0  0  0  0  0  0
   -3.0528   -2.3513   -0.0483 O   0  0  0  0  0  0  0  0  0  0  0  0
   -2.7908   -1.2331   -0.8454 C   0  0  1  0  0  0  0  0  0  0  0  0
   -3.9103   -1.0119   -1.8370 C   0  0  0  0  0  2  0  0  0  0  0  0
   -2.6042    0.0226   -0.0340 C   0  0  2  0  0  0  0  0  0  0  0  0
   -3.3666    1.0765   -0.5613 O   0  0  0  0  0  0  0  0  0  0  0  0
   -1.1486    0.4560   -0.0734 C   0  0  1  0  0  0  0  0  0  0  0  0
   -0.7792    0.7520    1.2444 O   0  0  0  0  0  0  0  0  0  0  0  0
   -1.7408    1.6416    1.7433 C   0  0  2  0  0  0  0  0  0  0  0  0
   -1.7177    2.7754    0.8866 O   0  0  0  0  0  0  0  0  0  0  0  0
   -1.3824    2.0919    3.0130 O   0  0  0  0  0  0  0  0  0  0  0  0
   -2.3521    1.7930    3.8736 O   0  0  0  0  0  0  0  0  0  0  0  0
  1  2  1  0
  2  3  1  0
  3  4  1  0
  4  5  1  0
  5  6  1  6
  5  7  1  0
  8  7  1  1
  8  9  1  0
  9 10  1  0
 11  8  1  1
 11 12  1  0
 12 13  1  1
 12 14  1  0
 14 15  1  0
 15 16  1  0
 16 17  1  0
 17 18  1  6
 17 19  1  0
 19 20  1  6
 19 21  1  0
 21 22  1  1
 22 23  1  0
 23 24  1  6
 23 25  1  0
 25 26  1  0
 21 11  1  0
M  RAD  5   3   2   7   2  10   3  15   2  18   3
M  END
>  <fragInfo>  (1) 
11 12 13 14 15 16 17 18 19 20 21
1 2
3
4
5 6
7
8
9 10
22
23 24
25 26


>  <torsionInfo>  (1) 
8 11 6 0
21 22 0 8
2 3 1 2
3 4 2 3
4 5 3 4
5 7 4 5
7 8 5 6
8 9 6 7
22 23 8 9
23 25 9 10


>  <atomInfo>  (1) 
1  0.03885651C 
2  -0.3513313OA
3  0.20894130C 
4  -0.3445556OA
5  0.06278864C 
6  -0.0382022C 
7  0.00755331C 
8  0.02069961C 
9  -0.3072144NA
10 0.04096066C 
11 0.02985182C 
12 0.06496056C 
13 -0.0381127C 
14 -0.3444469OA
15 0.20959450C 
16 -0.3414521OA
17 0.09287678C 
18 -0.0006269C 
19 0.10729761C 
20 -0.3876661OA
21 0.09836943C 
22 -0.3216132OA
23 0.29836473C 
24 -0.3439789OA
25 -0.1774272OA
26 -0.2467333OA


$$$$
