
     RDKit          3D

 25 26  0  0  0  0  0  0  0  0999 V2000
   -5.9656    0.8728    2.6228 C   0  0  0  0  0  0  0  0  0  0  0  0
   -5.7979    0.5473    1.2726 O   0  0  0  0  0  0  0  0  0  0  0  0
   -4.6289   -0.0392    0.8048 C   0  0  0  0  0  0  0  0  0  0  0  0
   -3.5932   -0.3113    1.7085 C   0  0  0  0  0  0  0  0  0  0  0  0
   -2.4736   -0.8873    1.1839 C   0  0  0  0  0  0  0  0  0  0  0  0
   -2.2832   -1.2158   -0.1321 C   0  0  0  0  0  0  0  0  0  0  0  0
   -3.3316   -0.9335   -1.0105 C   0  0  0  0  0  0  0  0  0  0  0  0
   -4.4749   -0.3540   -0.5214 C   0  0  0  0  0  0  0  0  0  0  0  0
   -5.5118   -0.0767   -1.4009 O   0  0  0  0  0  0  0  0  0  0  0  0
   -5.4113   -0.3795   -2.7832 C   0  0  0  0  0  0  0  0  0  0  0  0
   -1.0455   -1.8427   -0.6454 C   0  0  0  0  0  0  0  0  0  0  0  0
   -0.0771   -0.7924   -1.0635 C   0  0  0  0  0  0  0  0  0  0  0  0
    0.3719    0.1551   -0.0497 C   0  0  2  0  0  0  0  0  0  0  0  0
   -0.5013    0.9510    0.5914 O   0  0  0  0  0  0  0  0  0  0  0  0
    1.7667    0.3402    0.1639 N   0  0  0  0  0  0  0  0  0  0  0  0
    1.9035    1.4821    0.9998 N   0  0  0  0  0  0  0  0  0  0  0  0
    3.2392    1.9323    0.7026 C   0  0  0  0  0  0  0  0  0  0  0  0
    3.5460    1.5704   -0.5335 C   0  0  0  0  0  0  0  0  0  0  0  0
    2.3602    0.8590   -1.0527 C   0  0  1  0  0  0  0  0  0  0  0  0
    2.7844   -0.1774   -1.8604 O   0  0  0  0  0  0  0  0  0  0  0  0
    3.7227   -1.0183   -1.2909 C   0  0  0  0  0  0  0  0  0  0  0  0
    4.9622   -0.2330   -0.9459 C   0  0  0  0  0  0  0  0  0  0  0  0
    6.0210   -1.1141   -0.3180 C   0  0  0  0  0  0  0  0  0  0  0  0
    7.2013   -0.2708   -0.0086 C   0  0  0  0  0  0  0  0  0  0  0  0
    7.2168    0.9360   -0.2597 O   0  0  0  0  0  0  0  0  0  0  0  0
  1  2  1  0
  2  3  1  0
  3  4  2  0
  4  5  1  0
  5  6  2  0
  6  7  1  0
  7  8  2  0
  8  9  1  0
  9 10  1  0
  6 11  1  0
 11 12  1  0
 12 13  1  0
 13 14  1  6
 13 15  1  0
 15 16  1  0
 16 17  1  0
 17 18  2  0
 18 19  1  0
 19 20  1  6
 20 21  1  0
 21 22  1  0
 22 23  1  0
 23 24  1  0
 24 25  2  0
  8  3  1  0
 19 15  1  0
M  END
>  <fragInfo>  (1) 
3 4 5 6 7 8
1 2
9 10
11
12
13 14
15 16 17 18 19
20
21
22
23
24 25


>  <torsionInfo>  (1) 
2 3 1 0
6 11 0 3
8 9 0 2
11 12 3 4
12 13 4 5
13 15 5 6
19 20 6 7
20 21 7 8
21 22 8 9
22 23 9 10
23 24 10 11


>  <atomInfo>  (1) 
1  0.07771725C 
2  -0.4928699OA
3  0.16023215A 
4  -0.0158189A 
5  -0.0550800A 
6  -0.0439112A 
7  -0.0128755A 
8  0.16048658A 
9  -0.4928596OA
10 0.07771751C 
11 -0.0239040C 
12 -0.0074167C 
13 0.12717217C 
14 -0.3765770OA
15 -0.1638116NA
16 -0.3214690N 
17 0.01296835C 
18 -0.0221205C 
19 0.15025018C 
20 -0.3576217OA
21 0.04951220C 
22 -0.0228692C 
23 0.00519815C 
24 0.11957743C 
25 -0.3034013OA


$$$$
