
     RDKit          3D

 56 55  0  0  0  0  0  0  0  0999 V2000
   -9.3002    4.9434   -1.5129 C   0  0  0  0  0  0  0  0  0  0  0  0
   -9.6934    6.3251   -1.0178 C   0  0  0  0  0  0  0  0  0  0  0  0
  -11.0532    6.7242   -1.5244 C   0  0  0  0  0  0  0  0  0  0  0  0
   -9.6987    6.2955    0.4911 C   0  0  0  0  0  0  0  0  0  0  0  0
  -10.7175    5.2479    0.9301 C   0  0  0  0  0  0  0  0  0  0  0  0
  -10.3160    3.9042    0.3761 C   0  0  0  0  0  3  0  0  0  0  0  0
  -11.3203    2.8655    0.8061 C   0  0  1  0  0  0  0  0  0  0  0  0
  -12.7202    3.1822    0.3076 C   0  0  0  0  0  0  0  0  0  0  0  0
  -10.9115    1.4800    0.3924 C   0  0  0  0  0  0  0  0  0  0  0  0
   -9.5871    1.1251    1.0127 C   0  0  0  0  0  0  0  0  0  0  0  0
   -9.1571   -0.2698    0.6096 C   0  0  0  0  0  0  0  0  0  0  0  0
   -7.8262   -0.5709    1.2583 C   0  0  2  0  0  0  0  0  0  0  0  0
   -8.0333   -0.4755    2.7612 C   0  0  0  0  0  2  0  0  0  0  0  0
   -6.8312    0.5282    0.8903 C   0  0  0  0  0  3  0  0  0  0  0  0
   -5.4898    0.2961    1.4928 C   0  0  0  0  0  0  0  0  0  0  0  0
   -4.8187   -0.9522    1.0554 C   0  0  1  0  0  0  0  0  0  0  0  0
   -5.6079   -2.1600    1.3792 C   0  0  0  0  0  2  0  0  0  0  0  0
   -4.1725   -0.9044   -0.2846 C   0  0  1  0  0  0  0  0  0  0  0  0
   -5.1189   -0.6061   -1.4267 C   0  0  0  0  0  3  0  0  0  0  0  0
   -6.1681   -1.6934   -1.4518 C   0  0  0  0  0  0  0  0  0  0  0  0
   -7.1649   -1.4541   -2.5648 C   0  0  0  0  0  0  0  0  0  0  0  0
   -8.2453   -2.4681   -2.6578 C   0  0  0  0  0  0  0  0  0  0  0  0
   -7.7718   -3.8782   -2.9017 C   0  0  0  0  0  0  0  0  0  0  0  0
   -8.9424   -4.8426   -2.9819 C   0  0  2  0  0  0  0  0  0  0  0  0
   -9.7162   -4.8103   -1.6817 C   0  0  0  0  0  0  0  0  0  0  0  0
   -8.3885   -6.2389   -3.1446 C   0  0  0  0  0  3  0  0  0  0  0  0
   -7.5082   -6.5944   -1.9544 C   0  0  0  0  0  2  0  0  0  0  0  0
   -3.1157    0.2181   -0.1887 C   0  0  0  0  0  0  0  0  0  0  0  0
   -2.1739   -0.2116    0.9182 C   0  0  0  0  0  3  0  0  0  0  0  0
   -1.1057    0.7769    1.2091 C   0  0  0  0  0  3  0  0  0  0  0  0
    0.2653    0.4401    0.7504 C   0  0  0  0  0  0  0  0  0  0  0  0
    0.8552   -0.8132    1.2991 C   0  0  0  0  0  3  0  0  0  0  0  0
    0.9380   -0.8656    2.7890 C   0  0  0  0  0  0  0  0  0  0  0  0
    1.5849   -2.1759    3.1893 C   0  0  0  0  0  0  0  0  0  0  0  0
    2.9211   -2.2687    2.6509 N   0  0  0  0  0  0  0  0  0  0  0  0
    2.9483   -2.3845    1.2120 C   0  0  0  0  0  3  0  0  0  0  0  0
    3.8414   -1.2632    0.7019 C   0  0  0  0  0  0  0  0  0  0  0  0
    5.3060   -1.7238    0.6279 C   0  0  0  0  0  0  0  0  0  0  0  0
    5.7576   -2.1455    2.0000 C   0  0  0  0  0  0  0  0  0  0  0  0
    7.1863   -2.5862    1.9388 C   0  0  0  0  0  0  0  0  0  0  0  0
    8.0358   -1.4382    1.4705 C   0  0  0  0  0  0  0  0  0  0  0  0
    7.6445   -0.9546    0.1077 C   0  0  0  0  0  3  0  0  0  0  0  0
    8.5647    0.2277   -0.2376 C   0  0  0  0  0  0  0  0  0  0  0  0
    8.2779    0.7505   -1.5415 N   0  0  0  0  0  0  0  0  0  0  0  0
    8.6814   -0.2575   -2.5105 C   0  0  0  0  0  0  0  0  0  0  0  0
   10.1770   -0.3624   -2.4804 C   0  0  0  0  0  0  0  0  0  0  0  0
   10.7129   -0.8638   -1.4237 N   0  0  0  0  0  3  0  0  0  0  0  0
   12.4479   -1.0170   -1.3194 S   0  0  0  0  0  0  0  0  0  0  0  0
   13.1986    0.4462   -2.0950 C   0  0  0  0  0  3  0  0  0  0  0  0
   14.7242    0.3443   -2.0188 C   0  0  0  0  0  0  0  0  0  0  0  0
   15.1958    0.9972   -0.7333 C   0  0  0  0  0  3  0  0  0  0  0  0
   14.7761    2.4412   -0.7320 C   0  0  0  0  0  3  0  0  0  0  0  0
   15.9566    3.3271   -0.4862 C   0  0  0  0  0  3  0  0  0  0  0  0
   17.1686    2.5584   -0.0479 C   0  0  0  0  0  0  0  0  0  0  0  0
   17.5899    1.5513   -1.0785 C   0  0  0  0  0  0  0  0  0  0  0  0
   17.9183    2.2545   -2.3768 C   0  0  0  0  0  2  0  0  0  0  0  0
  1  2  1  0
  2  3  1  0
  2  4  1  0
  4  5  1  0
  5  6  1  0
  6  7  1  0
  7  8  1  6
  7  9  1  0
  9 10  1  0
 10 11  1  0
 11 12  1  0
 12 13  1  1
 12 14  1  0
 14 15  1  0
 15 16  1  0
 16 17  1  6
 16 18  1  0
 18 19  1  6
 19 20  1  0
 20 21  1  0
 21 22  1  0
 22 23  1  0
 23 24  1  0
 24 25  1  1
 24 26  1  0
 26 27  1  0
 18 28  1  0
 28 29  1  0
 29 30  1  0
 30 31  1  0
 31 32  1  0
 32 33  1  0
 33 34  1  0
 34 35  1  0
 35 36  1  0
 36 37  1  0
 37 38  1  0
 38 39  1  0
 39 40  1  0
 40 41  1  0
 41 42  1  0
 42 43  1  0
 43 44  1  0
 44 45  1  0
 45 46  1  0
 46 47  2  3
 47 48  1  0
 48 49  1  0
 49 50  1  0
 50 51  1  0
 51 52  1  0
 52 53  1  0
 53 54  1  0
 54 55  1  0
 55 56  1  0
M  RAD  8   6   2  13   3  14   2  17   3  19   2  26   2  27   3  29   2
M  RAD  8  30   2  32   2  36   2  42   2  47   2  49   2  51   2  52   2
M  CHG  1  47   1
M  RAD  2  53   2  56   3
M  END
>  <fragInfo>  (1) 
1 2 3
4
5
6
7 8
9
10
11
12 13
14
15
16 17
18
19
20
21
22
23
24 25
26 27
28
29
30
31
32
33
34
35
36
37
38
39
40
41
42
43
44
45
46 47
48
49
50
51
52
53
54
55 56


>  <torsionInfo>  (1) 
2 4 0 1
4 5 1 2
5 6 2 3
6 7 3 4
7 9 4 5
9 10 5 6
10 11 6 7
11 12 7 8
12 14 8 9
14 15 9 10
15 16 10 11
16 18 11 12
18 19 12 13
18 28 12 20
19 20 13 14
20 21 14 15
21 22 15 16
22 23 16 17
23 24 17 18
24 26 18 19
28 29 20 21
29 30 21 22
30 31 22 23
31 32 23 24
32 33 24 25
33 34 25 26
34 35 26 27
35 36 27 28
36 37 28 29
37 38 29 30
38 39 30 31
39 40 31 32
40 41 32 33
41 42 33 34
42 43 34 35
43 44 35 36
44 45 36 37
45 46 37 38
47 48 38 39
48 49 39 40
49 50 40 41
50 51 41 42
51 52 42 43
52 53 43 44
53 54 44 45
54 55 45 46


>  <atomInfo>  (1) 
1  -0.0627734C 
2  -0.0471220C 
3  -0.0627734C 
4  -0.0506902C 
5  -0.0496747C 
6  -0.0357406C 
7  -0.0411603C 
8  -0.0622342C 
9  -0.0504259C 
10 -0.0527571C 
11 -0.0498762C 
12 -0.0348853C 
13 -0.0315047C 
14 -0.0348865C 
15 -0.0464784C 
16 -0.0346015C 
17 -0.0314938C 
18 -0.0348869C 
19 -0.0351812C 
20 -0.0498969C 
21 -0.0530112C 
22 -0.0530312C 
23 -0.0504254C 
24 -0.0408643C 
25 -0.0622234C 
26 -0.0320519C 
27 -0.0312195C 
28 -0.0464891C 
29 -0.0348869C 
30 -0.0348967C 
31 -0.0467268C 
32 -0.0370358C 
33 -0.0375293C 
34 -0.0042914C 
35 -0.3124193NA
36 0.02206958C 
37 -0.0362509C 
38 -0.0517649C 
39 -0.0532362C 
40 -0.0529827C 
41 -0.0489216C 
42 -0.0247924C 
43 -0.0012175C 
44 -0.3074883NA
45 0.08197153C 
46 0.24353430C 
47 0.09999159N 
48 0.24078406SA
49 0.09536157C 
50 -0.0302920C 
51 -0.0335227C 
52 -0.0317544C 
53 -0.0348850C 
54 -0.0496019C 
55 -0.0496126C 
56 -0.0351815C 


$$$$
