
     RDKit          3D

  9  9  0  0  0  0  0  0  0  0999 V2000
    0.6716    1.5242    0.2234 C   0  0  0  0  0  0  0  0  0  0  0  0
    1.7906    0.7547   -0.0374 O   0  0  0  0  0  0  0  0  0  0  0  0
    1.5800   -0.6020    0.1191 C   0  0  0  0  0  3  0  0  0  0  0  0
    0.5134   -0.8947    0.9532 O   0  0  0  0  0  0  0  0  0  0  0  0
   -0.5819   -1.2627    0.1927 C   0  0  2  0  0  0  0  0  0  0  0  0
   -0.2498   -1.4391   -1.2720 C   0  0  0  0  0  0  0  0  0  0  0  0
   -1.7852   -0.3961    0.3966 C   0  0  0  0  0  3  0  0  0  0  0  0
   -1.5602    1.0488    0.0670 C   0  0  0  0  0  3  0  0  0  0  0  0
   -0.3786    1.2669   -0.6426 O   0  0  0  0  0  0  0  0  0  0  0  0
  1  2  1  0
  2  3  1  0
  3  4  1  0
  4  5  1  0
  5  6  1  6
  5  7  1  0
  7  8  1  0
  8  9  1  0
  9  1  1  0
M  RAD  3   3   2   7   2   8   2
M  END
>  <fragInfo>  (1) 
1 2 3 4 5 6 7 8 9


>  <torsionInfo>  (1) 


>  <atomInfo>  (1) 
1  0.15017148C 
2  -0.3212305OA
3  0.21152995C 
4  -0.3444452OA
5  0.06391172C 
6  -0.0381602C 
7  0.02178836C 
8  0.09272274C 
9  -0.3489442OA


$$$$
