
     RDKit          3D

 25 27  0  0  0  0  0  0  0  0999 V2000
    1.8578    2.7131    0.6174 C   0  0  0  0  0  0  0  0  0  0  0  0
    1.7236    1.8504    1.8594 C   0  0  2  0  0  0  0  0  0  0  0  0
    3.1090    1.3640    2.2994 C   0  0  0  0  0  0  0  0  0  0  0  0
    2.7613    0.0219    1.6678 C   0  0  2  0  0  0  0  0  0  0  0  0
    3.4860   -0.1648    0.3733 C   0  0  0  0  0  3  0  0  0  0  0  0
    4.9939   -0.1225    0.5770 C   0  0  1  0  0  0  0  0  0  0  0  0
    5.3773   -1.1032    1.4888 O   0  0  0  0  0  0  0  0  0  0  0  0
    5.7152   -0.3120   -0.7364 C   0  0  0  0  0  3  0  0  0  0  0  0
    5.3523    0.7601   -1.7134 C   0  0  0  0  0  0  0  0  0  0  0  0
    1.3270    0.4249    1.5367 C   0  0  2  0  0  0  0  0  0  0  0  0
    0.6970    0.2375    0.1913 C   0  0  0  0  0  3  0  0  0  0  0  0
    0.3729   -1.2540    0.0580 C   0  0  0  0  0  0  0  0  0  0  0  0
   -0.2742   -1.5182   -1.2953 C   0  0  0  0  0  0  0  0  0  0  0  0
   -1.5339   -0.6929   -1.3447 C   0  0  2  0  0  0  0  0  0  0  0  0
   -1.3151    0.6561   -1.2153 O   0  0  0  0  0  0  0  0  0  0  0  0
   -2.4740   -1.1589   -0.2532 C   0  0  2  0  0  0  0  0  0  0  0  0
   -2.5726   -2.5502   -0.2201 O   0  0  0  0  0  0  0  0  0  0  0  0
   -2.3401   -0.9334   -2.5961 C   0  0  0  0  0  3  0  0  0  0  0  0
   -3.7010   -0.3889   -2.1965 C   0  0  0  0  0  3  0  0  0  0  0  0
   -3.7744   -0.5168   -0.6908 C   0  0  2  0  0  0  0  0  0  0  0  0
   -3.8872    0.8065   -0.0045 C   0  0  2  0  0  0  0  0  0  0  0  0
   -4.9737    1.6272   -0.2077 O   0  0  0  0  0  0  0  0  0  0  0  0
   -3.6231    2.0684   -0.4459 C   0  0  1  0  0  0  0  0  0  0  0  0
   -3.1167    3.1632    0.4737 C   0  0  0  0  0  0  0  0  0  0  0  0
   -3.1876    2.6322    1.7771 O   0  0  0  0  0  0  0  0  0  0  0  0
  2  1  1  6
  2  3  1  0
  3  4  1  0
  4  5  1  6
  5  6  1  0
  6  7  1  1
  6  8  1  0
  8  9  1  0
  2 10  1  0
 10 11  1  6
 11 12  1  0
 12 13  1  0
 13 14  1  0
 14 15  1  1
 14 16  1  0
 16 17  1  6
 14 18  1  0
 18 19  1  0
 20 19  1  6
 20 21  1  0
 21 22  1  6
 22 23  1  0
 23 24  1  1
 24 25  1  0
 10  4  1  0
 20 16  1  0
 23 21  1  0
M  RAD  5   5   2   8   2  11   2  18   2  19   2
M  END
>  <fragInfo>  (1) 
14 15 16 17 18 19 20
1 2 3 4 10
5
6 7
8 9
11
12
13
21 22 23
24 25


>  <torsionInfo>  (1) 
13 14 7 0
20 21 0 8
4 5 1 2
10 11 1 5
5 6 2 3
6 8 3 4
11 12 5 6
12 13 6 7
23 24 8 9


>  <atomInfo>  (1) 
1  -0.0622132C 
2  -0.0405975C 
3  -0.0469103C 
4  -0.0321020C 
5  -0.0062751C 
6  0.06033904C 
7  -0.3925270OA
8  -0.0127637C 
9  -0.0596748C 
10 -0.0324928C 
11 -0.0348164C 
12 -0.0470395C 
13 -0.0209871C 
14 0.09435888C 
15 -0.3868628OA
16 0.08863837C 
17 -0.3897116OA
18 -0.0002998C 
19 -0.0236539C 
20 0.02012134C 
21 0.09220475C 
22 -0.3666668OA
23 0.10753832C 
24 0.07193853C 
25 -0.3935700OA


$$$$
