
     RDKit          3D

 34 34  0  0  0  0  0  0  0  0999 V2000
   -2.9254    5.3146   -1.0556 C   0  0  0  0  0  0  0  0  0  0  0  0
   -1.9616    4.2023   -1.4417 C   0  0  0  0  0  0  0  0  0  0  0  0
   -0.5340    4.7445   -1.5150 C   0  0  0  0  0  0  0  0  0  0  0  0
   -2.3219    3.7756   -2.8540 C   0  0  0  0  0  0  0  0  0  0  0  0
   -2.0189    3.0667   -0.4583 C   0  0  0  0  0  0  0  0  0  0  0  0
   -1.0564    2.0266   -0.9019 C   0  0  0  0  0  0  0  0  0  0  0  0
   -0.9869    0.8206   -0.0235 C   0  0  0  0  0  0  0  0  0  0  0  0
   -1.7194    0.7516    1.0058 C   0  0  0  0  0  0  0  0  0  0  0  0
   -2.0793    0.0413    2.0565 N   0  0  0  0  0  0  0  0  0  0  0  0
   -2.6973   -0.8423    2.5912 C   0  0  0  0  0  0  0  0  0  0  0  0
   -3.5950   -1.8642    2.3718 C   0  0  0  0  0  0  0  0  0  0  0  0
   -3.7334   -2.9748    1.7317 C   0  0  0  0  0  0  0  0  0  0  0  0
   -4.9798   -3.7036    1.8685 O   0  0  0  0  0  0  0  0  0  0  0  0
   -2.8129   -3.6219    0.8783 N   0  0  0  0  0  0  0  0  0  0  0  0
   -2.5098   -3.4376   -0.4885 C   0  0  0  0  0  0  0  0  0  0  0  0
   -1.1514   -3.7838   -0.9666 C   0  0  0  0  0  0  0  0  0  0  0  0
   -0.4171   -2.5349   -1.5339 C   0  0  0  0  0  0  0  0  0  0  0  0
   -0.7309   -1.5117   -0.4588 C   0  0  1  0  0  0  0  0  0  0  0  0
   -2.1784   -1.1924   -0.6691 C   0  0  0  0  0  2  0  0  0  0  0  0
   -0.3600   -2.2106    0.8040 C   0  0  0  0  0  0  0  0  0  0  0  0
    1.0800   -2.5718    0.7528 C   0  0  0  0  0  0  0  0  0  0  0  0
    1.9532   -2.1193    1.6678 C   0  0  0  0  0  0  0  0  0  0  0  0
    3.4010   -2.5072    1.5809 C   0  0  0  0  0  0  0  0  0  0  0  0
    0.0065   -0.2206   -0.5156 C   0  0  1  0  0  0  0  0  0  0  0  0
    0.5243    0.1038   -1.8915 C   0  0  0  0  0  0  0  0  0  0  0  0
    1.1994    1.4503   -1.8329 C   0  0  0  0  0  0  0  0  0  0  0  0
    2.3301    1.3847   -0.8426 C   0  0  0  0  0  0  0  0  0  0  0  0
    3.2618    0.3523   -1.3059 N   0  0  0  0  0  0  0  0  0  0  0  0
    3.8490    0.8882   -2.5438 C   0  0  0  0  0  0  0  0  0  0  0  0
    4.3218    0.1697   -0.3163 C   0  0  0  0  0  0  0  0  0  0  0  0
    5.1278    1.4086   -0.3411 C   0  0  0  0  0  0  0  0  0  0  0  0
    5.2559    2.1663    0.7320 C   0  0  0  0  0  0  0  0  0  0  0  0
    4.5861    1.7980    2.0219 C   0  0  0  0  0  0  0  0  0  0  0  0
    3.8728    0.6314    1.8937 F   0  0  0  0  0  0  0  0  0  0  0  0
  1  2  1  0
  2  3  1  0
  2  4  1  0
  2  5  1  0
  5  6  1  0
  6  7  1  0
  7  8  2  3
  8  9  1  0
  9 10  2  3
 10 11  1  0
 11 12  2  3
 12 13  1  0
 12 14  1  0
 14 15  1  0
 15 16  1  0
 16 17  1  0
 17 18  1  0
 18 19  1  1
 18 20  1  0
 20 21  1  0
 21 22  2  3
 22 23  1  0
 18 24  1  0
 24 25  1  6
 25 26  1  0
 26 27  1  0
 27 28  1  0
 28 29  1  0
 28 30  1  0
 30 31  1  0
 31 32  2  3
 32 33  1  0
 33 34  1  0
 24  7  1  0
M  RAD  1  19   3
M  END
>  <fragInfo>  (1) 
7 8 9 10 11 12 13 14 15 16 17 18 19 24
1 2 3 4
5
6
20
21 22 23
25
26
27
28 29
30
31 32
33 34


>  <torsionInfo>  (1) 
6 7 3 0
18 20 0 4
24 25 0 6
2 5 1 2
5 6 2 3
20 21 4 5
25 26 6 7
26 27 7 8
27 28 8 9
28 30 9 10
30 31 10 11
32 33 11 12


>  <atomInfo>  (1) 
1  -0.0601627C 
2  -0.0379556C 
3  -0.0601627C 
4  -0.0601627C 
5  -0.0445655C 
6  -0.0294047C 
7  -0.0482189C 
8  0.02623442C 
9  -0.2645709NA
10 0.03200725C 
11 0.01597597C 
12 0.18515019C 
13 -0.4947674OA
14 -0.3566023N 
15 0.01750854C 
16 -0.0351165C 
17 -0.0447617C 
18 -0.0161955C 
19 -0.0274754C 
20 -0.0285244C 
21 -0.0882320C 
22 -0.0916429C 
23 -0.0469912C 
24 -0.0122029C 
25 -0.0448542C 
26 -0.0398239C 
27 -0.0018264C 
28 -0.3027163NA
29 -0.0130587C 
30 0.01605661C 
31 -0.0719513C 
32 -0.0565097C 
33 0.10764397C 
34 -0.2465891F 


$$$$
