
     RDKit          3D

 14 13  0  0  0  0  0  0  0  0999 V2000
    4.4559    1.1238   -0.2969 O   0  0  0  0  0  0  0  0  0  0  0  0
    3.0959    1.1506   -0.0074 C   0  0  0  0  0  0  0  0  0  0  0  0
    2.3366    0.2518   -0.9797 C   0  0  0  0  0  3  0  0  0  0  0  0
    0.9231    0.3551   -0.5860 N   0  0  0  0  0  0  0  0  0  0  0  0
    0.6991   -0.3845    0.6092 C   0  0  2  0  0  0  0  0  0  0  0  0
    0.9579   -1.8431    0.4566 C   0  0  0  0  0  0  0  0  0  0  0  0
    2.2969   -2.0203    0.0806 O   0  0  0  0  0  0  0  0  0  0  0  0
   -0.5166   -0.0513    1.3813 C   0  0  1  0  0  0  0  0  0  0  0  0
   -0.4980    1.2908    1.7899 O   0  0  0  0  0  0  0  0  0  0  0  0
   -1.8229   -0.3018    0.7217 C   0  0  2  0  0  0  0  0  0  0  0  0
   -1.9887   -1.6008    0.2578 O   0  0  0  0  0  0  0  0  0  0  0  0
   -2.1553    0.6172   -0.2447 O   0  0  0  0  0  0  0  0  0  0  0  0
   -3.3959    0.2911   -0.7981 C   0  0  0  0  0  3  0  0  0  0  0  0
   -4.3878    1.1214   -0.2377 O   0  0  0  0  0  1  0  0  0  0  0  0
  1  2  1  0
  2  3  1  0
  3  4  1  0
  4  5  1  0
  5  6  1  6
  6  7  1  0
  5  8  1  0
  8  9  1  6
  8 10  1  0
 10 11  1  6
 10 12  1  0
 12 13  1  0
 13 14  1  0
M  CHG  1  14  -1
M  RAD  2   3   2  13   2
M  END
>  <fragInfo>  (1) 
1 2
3
4
5
6 7
8 9
10 11
12
13 14


>  <torsionInfo>  (1) 
2 3 0 1
3 4 1 2
4 5 2 3
5 6 3 4
5 8 3 5
8 10 5 6
10 12 6 7
12 13 7 8


>  <atomInfo>  (1) 
1  -0.3946905OA
2  0.06004188C 
3  0.04808625C 
4  -0.3027953NA
5  0.06164054C 
6  0.06116346C 
7  -0.3946470OA
8  0.12205697C 
9  -0.3860974OA
10 0.18080304C 
11 -0.3658021OA
12 -0.3630131OA
13 -0.0039038C 
14 -0.8301309OA


$$$$
