
     RDKit          3D

 84 84  0  0  0  0  0  0  0  0999 V2000
    1.1915   -0.7502   -1.7452 O   0  0  0  0  0  0  0  0  0  0  0  0
   -0.1706   -1.0035   -1.3960 C   0  0  0  0  0  0  0  0  0  0  0  0
   -0.3464   -2.5278   -1.4101 C   0  0  0  0  0  3  0  0  0  0  0  0
    0.7115   -3.2006   -0.7124 N   0  0  0  0  0  0  0  0  0  0  0  0
    0.2411   -4.3740   -0.0237 C   0  0  2  0  0  0  0  0  0  0  0  0
   -0.0889   -3.9763    1.3963 C   0  0  0  0  0  0  0  0  0  0  0  0
    1.0649   -3.4764    1.9849 O   0  0  0  0  0  0  0  0  0  0  0  0
    1.2126   -5.5146   -0.0106 C   0  0  1  0  0  0  0  0  0  0  0  0
    1.5607   -5.8042    1.2908 O   0  0  0  0  0  0  0  0  0  0  0  0
    0.7069   -6.7653   -0.6815 C   0  0  1  0  0  0  0  0  0  0  0  0
    1.5863   -7.2144   -1.6625 O   0  0  0  0  0  0  0  0  0  0  0  0
    0.4664   -7.9026    0.3072 C   0  0  0  0  0  3  0  0  0  0  0  0
   -0.9787   -8.0107    0.6948 C   0  0  0  0  0  0  0  0  0  0  0  0
   -1.6761   -6.9112    0.7672 C   0  0  0  0  0  0  0  0  0  0  0  0
   -3.0989   -6.7845    1.1271 C   0  0  0  0  0  0  0  0  0  0  0  0
   -3.9374   -7.6479    0.3310 N   0  0  0  0  0  3  0  0  0  0  0  0
   -3.2991   -8.8132    0.1161 O   0  0  0  0  0  0  0  0  0  0  0  0
   -4.3057   -7.0307   -0.9204 C   0  0  1  0  0  0  0  0  0  0  0  0
   -4.5829   -8.1643   -1.8909 C   0  0  0  0  0  0  0  0  0  0  0  0
   -5.4680   -6.2807   -0.8015 O   0  0  0  0  0  0  0  0  0  0  0  0
   -5.3279   -5.4117    0.2195 N   0  0  0  0  0  2  0  0  0  0  0  0
   -6.2360   -4.4021    0.1289 O   0  0  0  0  0  0  0  0  0  0  0  0
   -7.4688   -5.0035   -0.1044 C   0  0  1  0  0  0  0  0  0  0  0  0
   -7.4407   -6.3517    0.3089 O   0  0  0  0  0  0  0  0  0  0  0  0
   -8.5595   -4.3548    0.7552 C   0  0  2  0  0  0  0  0  0  0  0  0
   -9.5882   -5.3106    0.8338 O   0  0  0  0  0  0  0  0  0  0  0  0
   -9.0730   -3.2714    0.0251 O   0  0  0  0  0  0  0  0  0  0  0  0
  -10.2497   -2.9184    0.5609 N   0  0  0  0  0  3  0  0  0  0  0  0
  -11.2710   -3.6435    0.0295 O   0  0  0  0  0  0  0  0  0  0  0  0
  -10.4536   -1.5015    0.2547 C   0  0  0  0  0  0  0  0  0  0  0  0
  -11.8127   -1.2846    0.0064 O   0  0  0  0  0  0  0  0  0  0  0  0
  -11.9786   -0.2003   -0.7499 O   0  0  0  0  0  0  0  0  0  0  0  0
  -11.5301    0.9358   -0.0342 C   0  0  0  0  0  0  0  0  0  0  0  0
  -10.1249    0.9787   -0.1963 O   0  0  0  0  0  0  0  0  0  0  0  0
   -9.7670    2.3377   -0.0282 C   0  0  0  0  0  0  0  0  0  0  0  0
   -9.4660    2.4887    1.3748 O   0  0  0  0  0  0  0  0  0  0  0  0
   -8.2050    3.0893    1.6050 N   0  0  0  0  0  0  0  0  0  0  0  0
   -8.2725    4.3917    1.3611 C   0  0  0  0  0  0  0  0  0  0  0  0
   -7.3191    5.1603    1.4746 N   0  0  0  0  0  4  0  0  0  0  0  0
   -6.3814    5.9314    1.6049 C   0  0  0  0  0  0  0  0  0  0  0  0
   -5.3843    6.7222    1.7434 O   0  0  0  0  0  0  0  0  0  0  0  0
   -4.3697    6.7934    0.7352 C   0  0  0  0  0  0  0  0  0  0  0  0
   -4.8027    6.1227   -0.4058 O   0  0  0  0  0  0  0  0  0  0  0  0
   -4.8415    7.0311   -1.4703 C   0  0  1  0  0  0  0  0  0  0  0  0
   -5.8305    8.0785   -1.1762 N   0  0  0  0  0  3  0  0  0  0  0  0
   -5.8504    8.8799   -2.2932 O   0  0  0  0  0  0  0  0  0  0  0  0
   -5.3020    8.8198   -0.1304 O   0  0  0  0  0  0  0  0  0  0  0  0
   -5.0807   10.1524   -0.3452 C   0  0  0  0  0  0  0  0  0  0  0  0
   -4.8828   11.3421   -0.5397 C   0  0  0  0  0  0  0  0  0  0  0  0
   -3.4831    7.7286   -1.5555 C   0  0  0  0  0  0  0  0  0  0  0  0
   -2.4968    6.8059   -0.8913 N   0  0  0  0  0  0  0  0  0  0  0  0
   -2.7162    5.4499   -1.2482 O   0  0  0  0  0  0  0  0  0  0  0  0
   -1.6475    7.1395   -0.1410 C   0  0  0  0  0  0  0  0  0  0  0  0
   -0.6568    7.5467    0.7631 C   0  0  0  0  0  0  0  0  0  0  0  0
    0.2789    7.9289    1.5887 C   0  0  0  0  0  0  0  0  0  0  0  0
    1.5949    7.9045    1.0462 O   0  0  0  0  0  0  0  0  0  0  0  0
    1.5662    7.2515   -0.1990 C   0  0  0  0  0  0  0  0  0  0  0  0
    1.4581    5.9249   -0.1165 N   0  0  0  0  0  4  0  0  0  0  0  0
    1.3870    4.8763   -0.0450 C   0  0  0  0  0  0  0  0  0  0  0  0
    1.2810    3.6162    0.0483 C   0  0  0  0  0  0  0  0  0  0  0  0
    1.1971    2.5235    0.1368 C   0  0  0  0  0  0  0  0  0  0  0  0
    1.1053    1.2109    0.2644 O   0  0  0  0  0  0  0  0  0  0  0  0
    2.1597    0.3306    0.1254 N   0  0  0  0  0  4  0  0  0  0  0  0
    3.2690    0.3129    1.0208 N   0  0  0  0  0  1  0  0  0  0  0  0
    2.1906   -0.5710   -0.8194 C   0  0  0  0  0  0  0  0  0  0  0  0
    3.4512   -1.3944   -0.7993 C   0  0  2  0  0  0  0  0  0  0  0  0
    3.4787   -2.2048    0.3176 O   0  0  0  0  0  0  0  0  0  0  0  0
    4.4789   -0.3672   -0.7500 O   0  0  0  0  0  0  0  0  0  0  0  0
    5.7729   -0.6294   -0.5918 C   0  0  0  0  0  0  0  0  0  0  0  0
    6.9397   -0.8653   -0.4349 C   0  0  0  0  0  0  0  0  0  0  0  0
    8.3332   -1.1670   -0.2411 C   0  0  0  0  0  0  0  0  0  0  0  0
    9.4722   -1.4343   -0.0861 C   0  0  0  0  0  0  0  0  0  0  0  0
   10.7363   -1.7420    0.0687 N   0  0  0  0  0  4  0  0  0  0  0  0
   11.8266   -2.0267    0.1966 C   0  0  0  0  0  0  0  0  0  0  0  0
   13.1739   -2.3861    0.3749 C   0  0  0  0  0  0  0  0  0  0  0  0
   14.3010   -2.7037    0.5279 C   0  0  0  0  0  0  0  0  0  0  0  0
   15.5958   -3.0918    0.7095 O   0  0  0  0  0  0  0  0  0  0  0  0
   16.2944   -2.3814    1.7718 C   0  0  0  0  0  3  0  0  0  0  0  0
   17.2087   -1.5093    1.1933 N   0  0  0  0  0  4  0  0  0  0  0  0
   18.0033   -0.7628    0.6838 C   0  0  0  0  0  0  0  0  0  0  0  0
   18.9227    0.1234    0.0919 C   0  0  0  0  0  0  0  0  0  0  0  0
   19.7003    0.8963   -0.4101 C   0  0  0  0  0  0  0  0  0  0  0  0
   20.5583    1.7230   -0.9565 N   0  0  0  0  0  4  0  0  0  0  0  0
   21.3456    2.4958   -1.4828 C   0  0  0  0  0  0  0  0  0  0  0  0
  1  2  1  0
  2  3  1  0
  3  4  1  0
  4  5  1  0
  5  6  1  1
  6  7  1  0
  5  8  1  0
  8  9  1  1
  8 10  1  0
 10 11  1  6
 10 12  1  0
 12 13  1  0
 13 14  2  3
 14 15  1  0
 15 16  1  0
 16 17  1  0
 16 18  1  0
 18 19  1  6
 18 20  1  0
 20 21  1  0
 21 22  1  0
 22 23  1  0
 23 24  1  1
 23 25  1  0
 25 26  1  6
 25 27  1  0
 27 28  1  0
 28 29  1  0
 28 30  1  0
 30 31  1  0
 31 32  1  0
 32 33  1  0
 33 34  1  0
 34 35  1  0
 35 36  1  0
 36 37  1  0
 37 38  2  3
 38 39  1  0
 39 40  3  0
 40 41  1  0
 41 42  1  0
 42 43  1  0
 43 44  1  0
 44 45  1  1
 45 46  1  0
 45 47  1  0
 47 48  1  0
 48 49  3  0
 44 50  1  0
 50 51  1  0
 51 52  1  0
 51 53  1  0
 53 54  3  0
 54 55  1  0
 55 56  1  0
 56 57  1  0
 57 58  1  0
 58 59  3  0
 59 60  1  0
 60 61  3  0
 61 62  1  0
 62 63  1  0
 63 64  1  0
 63 65  2  3
 65 66  1  0
 66 67  1  1
 66 68  1  0
 68 69  1  0
 69 70  3  0
 70 71  1  0
 71 72  3  0
 72 73  1  0
 73 74  3  0
 74 75  1  0
 75 76  3  0
 76 77  1  0
 77 78  1  0
 78 79  1  0
 79 80  3  0
 80 81  1  0
 81 82  3  0
 82 83  1  0
 83 84  3  0
 65  1  1  0
M  CHG  8  16   1  21   1  28   1  39   1  45   1  58   1  63   1  64   1
M  RAD  8   3   2  12   2  16   2  21   3  28   2  45   2  64   2  78   2
M  CHG  3  73   1  79   1  83   1
M  END
>  <fragInfo>  (1) 
1 2 3 4 5 8 9 10 11 12 13 14 15 16 17 18 19 20 21 22 23 24 25 26 27 28 29 30 31 32 33 34 35 36 37 38 39 40 41 42 43 44 50 51 52 53 54 55 56 57 58 59 60 61 62 63 64 65
6 7
45 46
47 48 49
66 67
68 69 70 71 72 73 74 75 76 77
78 79 80 81 82 83 84


>  <torsionInfo>  (1) 
5 6 0 1
44 45 0 2
65 66 0 4
45 47 2 3
66 68 4 5
77 78 5 6


>  <atomInfo>  (1) 
1  -0.4329675OA
2  0.11157042C 
3  0.06061096C 
4  -0.3019212NA
5  0.05922006C 
6  0.06106420C 
7  -0.3946489OA
8  0.09796622C 
9  -0.3886795OA
10 0.08839675C 
11 -0.3897249OA
12 0.01446518C 
13 -0.0761828C 
14 -0.0255064C 
15 0.18088978C 
16 0.02883877N 
17 -0.1595452OA
18 0.33689283C 
19 0.02905234C 
20 0.02982086OA
21 0.51409888N 
22 -0.0053519OA
23 0.28959088C 
24 -0.3588200OA
25 0.28247703C 
26 -0.3590304OA
27 -0.0697297OA
28 0.19165213N 
29 -0.1215766OA
30 0.33084314C 
31 -0.1632819OA
32 -0.2019746OA
33 0.18470776C 
34 -0.3112335OA
35 0.24497808C 
36 -0.2682756OA
37 0.16690990NA
38 0.43815239C 
39 -0.1132663N 
40 0.39063807C 
41 -0.3815868OA
42 0.20965287C 
43 -0.2787021OA
44 0.34933091C 
45 0.25118593N 
46 -0.1111762OA
47 -0.1635385OA
48 0.19294129C 
49 -0.0691321C 
50 0.14660216C 
51 -0.2041072NA
52 -0.2803073OA
53 0.03626318C 
54 -0.0491200C 
55 0.11708448C 
56 -0.2963785OA
57 0.36943977C 
58 -0.0366445N 
59 0.37222721C 
60 0.11704008C 
61 0.22642328C 
62 -0.1064030OA
63 0.43947727N 
64 0.91331398N 
65 0.54746852C 
66 0.34398008C 
67 -0.3466616OA
68 -0.3981172OA
69 0.12786912C 
70 0.03599438C 
71 0.08399340C 
72 0.38976118C 
73 0.04428343N 
74 0.39212276C 
75 0.11125128C 
76 0.13903933C 
77 -0.3572782OA
78 0.54126122C 
79 -0.0037072N 
80 0.37878171C 
81 0.16127741C 
82 0.39441733C 
83 0.02608281N 
84 0.28155136C 


$$$$
