
     RDKit          3D

 17 16  0  0  0  0  0  0  0  0999 V2000
   -5.0405    2.7990   -0.7693 C   0  0  0  0  0  0  0  0  0  0  0  0
   -3.7282    2.0448   -0.6339 C   0  0  0  0  0  3  0  0  0  0  0  0
   -3.7157    1.4368    0.7530 C   0  0  0  0  0  0  0  0  0  0  0  0
   -2.4269    0.6831    0.9160 C   0  0  2  0  0  0  0  0  0  0  0  0
   -1.3016    1.4768    0.7806 O   0  0  0  0  0  0  0  0  0  0  0  0
   -2.3060   -0.4987   -0.0061 C   0  0  2  0  0  0  0  0  0  0  0  0
   -3.4050   -1.3455    0.0749 O   0  0  0  0  0  0  0  0  0  0  0  0
   -1.0607   -1.2741    0.4450 C   0  0  1  0  0  0  0  0  0  0  0  0
   -0.8595   -2.3799   -0.3748 O   0  0  0  0  0  0  0  0  0  0  0  0
    0.0997   -0.3164    0.2727 C   0  0  0  0  0  3  0  0  0  0  0  0
    1.4080   -0.9268    0.6747 C   0  0  0  0  0  3  0  0  0  0  0  0
    1.8069   -1.9890   -0.1996 N   0  0  0  0  0  0  0  0  0  0  0  0
    3.2135   -2.0675   -0.2760 N   0  0  0  0  0  0  0  0  0  0  0  0
    3.7849   -1.0760    0.6303 C   0  0  0  0  0  3  0  0  0  0  0  0
    3.7601    0.2720   -0.0136 C   0  0  0  0  0  0  0  0  0  0  0  0
    4.8839    0.9528   -0.0546 C   0  0  0  0  0  0  0  0  0  0  0  0
    4.8870    2.2087   -0.6480 O   0  0  0  0  0  0  0  0  0  0  0  0
  1  2  1  0
  2  3  1  0
  3  4  1  0
  4  5  1  6
  4  6  1  0
  6  7  1  1
  6  8  1  0
  8  9  1  6
  8 10  1  0
 10 11  1  0
 11 12  1  0
 12 13  1  0
 13 14  1  0
 14 15  1  0
 15 16  2  3
 16 17  1  0
M  RAD  4   2   2  10   2  11   2  14   2
M  END
>  <fragInfo>  (1) 
15 16 17
1 2
3
4 5
6 7
8 9
10
11
12
13
14


>  <torsionInfo>  (1) 
14 15 10 0
2 3 1 2
3 4 2 3
4 6 3 4
6 8 4 5
8 10 5 6
10 11 6 7
11 12 7 8
12 13 8 9
13 14 9 10


>  <atomInfo>  (1) 
1  -0.0621560C 
2  -0.0390442C 
3  -0.0215039C 
4  0.08269894C 
5  -0.3903174OA
6  0.10602588C 
7  -0.3877067OA
8  0.08724850C 
9  -0.3899578OA
10 0.01274276C 
11 0.04416006C 
12 -0.2521143NA
13 -0.2485238NA
14 0.06283324C 
15 -0.0299036C 
16 0.07680841C 
17 -0.5158674OA


$$$$
