
     RDKit          3D

 23 24  0  0  0  0  0  0  0  0999 V2000
    3.0308    0.0862   -2.4971 C   0  0  0  0  0  0  0  0  0  0  0  0
    2.3770   -0.7628   -1.4088 C   0  0  1  0  0  0  0  0  0  0  0  0
    3.4862   -1.1391   -0.4298 C   0  0  0  0  0  0  0  0  0  0  0  0
    4.1948    0.0828    0.0950 C   0  0  2  0  0  0  0  0  0  0  0  0
    4.3037    0.0342    1.4885 O   0  0  0  0  0  0  0  0  0  0  0  0
    3.3898    1.3060   -0.2776 C   0  0  2  0  0  0  0  0  0  0  0  0
    3.9313    2.4759    0.2245 O   0  0  0  0  0  0  0  0  0  0  0  0
    1.9704    1.1202    0.1860 C   0  0  1  0  0  0  0  0  0  0  0  0
    1.2265    2.2850    0.1810 O   0  0  0  0  0  0  0  0  0  0  0  0
    1.3803    0.0354   -0.6422 C   0  0  1  0  0  0  0  0  0  0  0  0
    0.2020    0.4285   -1.3690 N   0  0  0  0  0  0  0  0  0  0  0  0
   -0.9340   -0.0649   -0.6594 C   0  0  1  0  0  0  0  0  0  0  0  0
   -2.2533    0.4155   -1.1705 C   0  0  0  0  0  0  0  0  0  0  0  0
   -3.2968    0.1103   -0.1653 C   0  0  2  0  0  0  0  0  0  0  0  0
   -4.2871   -0.7817   -0.5946 O   0  0  0  0  0  0  0  0  0  0  0  0
   -3.9451    1.3894    0.3448 C   0  0  0  0  0  0  0  0  0  0  0  0
   -3.2793    2.5089   -0.1933 O   0  0  0  0  0  0  0  0  0  0  0  0
   -2.6743   -0.6112    1.0615 C   0  0  1  0  0  0  0  0  0  0  0  0
   -3.5935   -0.8237    2.0551 O   0  0  0  0  0  0  0  0  0  0  0  0
   -1.9776   -1.8729    0.6109 C   0  0  2  0  0  0  0  0  0  0  0  0
   -1.2563   -2.4490    1.8281 C   0  0  0  0  0  2  0  0  0  0  0  0
   -0.9154   -1.5398   -0.3983 C   0  0  1  0  0  0  0  0  0  0  0  0
   -1.0802   -2.2332   -1.6009 O   0  0  0  0  0  0  0  0  0  0  0  0
  2  1  1  6
  2  3  1  0
  3  4  1  0
  4  5  1  1
  4  6  1  0
  6  7  1  1
  6  8  1  0
  8  9  1  6
  8 10  1  0
 10 11  1  6
 12 11  1  6
 12 13  1  0
 13 14  1  0
 14 15  1  6
 14 16  1  0
 16 17  1  0
 14 18  1  0
 18 19  1  1
 18 20  1  0
 20 21  1  1
 20 22  1  0
 22 23  1  6
 10  2  1  0
 22 12  1  0
M  RAD  1  21   3
M  END
>  <fragInfo>  (1) 
1 2 3 4 5 6 7 8 9 10
11
12 13 14 15 18 19 20 21 22 23
16 17


>  <torsionInfo>  (1) 
10 11 0 1
11 12 1 2
14 16 2 3


>  <atomInfo>  (1) 
1  -0.0608233C 
2  -0.0236278C 
3  -0.0201755C 
4  0.08280077C 
5  -0.3903155OA
6  0.10722523C 
7  -0.3876533OA
8  0.09792983C 
9  -0.3886791OA
10 0.03843166C 
11 -0.3056208NA
12 0.03641909C 
13 -0.0012640C 
14 0.11534241C 
15 -0.3846975OA
16 0.07452280C 
17 -0.3932762OA
18 0.09062310C 
19 -0.3896271OA
20 0.01869466C 
21 -0.0262810C 
22 0.07506712C 
23 -0.3910973OA


$$$$
