
     RDKit          3D

 21 21  0  0  0  0  0  0  0  0999 V2000
   -2.1884    0.8737   -0.6832 C   0  0  0  0  0  0  0  0  0  0  0  0
   -3.3923   -0.0240   -0.5313 C   0  0  2  0  0  0  0  0  0  0  0  0
   -4.2914    0.4014    0.5992 C   0  0  0  0  0  0  0  0  0  0  0  0
   -2.9703   -1.4747   -0.4128 C   0  0  0  0  0  0  0  0  0  0  0  0
   -1.4872   -1.5560   -0.5759 C   0  0  0  0  0  0  0  0  0  0  0  0
   -0.9682   -2.9427   -0.7865 C   0  0  0  0  0  0  0  0  0  0  0  0
    0.2269   -3.2881    0.0346 C   0  0  2  0  0  0  0  0  0  0  0  0
   -0.0925   -3.4913    1.5040 C   0  0  0  0  0  0  0  0  0  0  0  0
    1.2898   -2.2338   -0.0253 C   0  0  0  0  0  0  0  0  0  0  0  0
    2.4608   -2.5665    0.4936 C   0  0  0  0  0  0  0  0  0  0  0  0
    3.6089   -1.7015    0.5362 C   0  0  0  0  0  0  0  0  0  0  0  0
    3.5704   -0.3970    0.4236 C   0  0  0  0  0  0  0  0  0  0  0  0
    4.7623    0.4890    0.4687 C   0  0  0  0  0  0  0  0  0  0  0  0
    2.2507    0.2586    0.2371 C   0  0  0  0  0  0  0  0  0  0  0  0
    2.3365    1.7560    0.3990 C   0  0  0  0  0  0  0  0  0  0  0  0
    1.0367    2.3863    0.0193 C   0  0  2  0  0  0  0  0  0  0  0  0
    1.0644    4.1305    0.2955 Cl  0  0  0  0  0  0  0  0  0  0  0  0
   -0.0517    1.7940    0.8914 C   0  0  0  0  0  0  0  0  0  0  0  0
   -1.3184    2.5626    0.7736 C   0  0  0  0  0  0  0  0  0  0  0  0
   -2.3386    2.1482    0.0373 C   0  0  0  0  0  0  0  0  0  0  0  0
   -3.5084    2.8752   -0.0609 O   0  0  0  0  0  0  0  0  0  0  0  0
  1  2  1  0
  2  3  1  1
  2  4  1  0
  4  5  1  0
  5  6  1  0
  6  7  1  0
  7  8  1  1
  7  9  1  0
  9 10  2  3
 10 11  1  0
 11 12  2  3
 12 13  1  0
 12 14  1  0
 14 15  1  0
 15 16  1  0
 16 17  1  1
 16 18  1  0
 18 19  1  0
 19 20  2  3
 20 21  1  0
 20  1  1  0
M  END
>  <fragInfo>  (1) 
1 2 3 4 5 6 7 8 9 10 11 12 13 14 15 16 17 18 19 20 21


>  <torsionInfo>  (1) 


>  <atomInfo>  (1) 
1  0.00691031C 
2  -0.0372477C 
3  -0.0620771C 
4  -0.0502584C 
5  -0.0524885C 
6  -0.0472070C 
7  -0.0258839C 
8  -0.0589985C 
9  -0.0816957C 
10 -0.0660617C 
11 -0.0636499C 
12 -0.0732833C 
13 -0.0436202C 
14 -0.0305793C 
15 -0.0326916C 
16 0.03744236C 
17 -0.1226566Cl
18 -0.0149384C 
19 -0.0453889C 
20 0.08855717C 
21 -0.5126485OA


$$$$
