
     RDKit          3D

 15 15  0  0  0  0  0  0  0  0999 V2000
   -0.4747    3.2286   -0.4255 C   0  0  0  0  0  0  0  0  0  0  0  0
   -1.5217    2.1166   -0.3918 C   0  0  0  0  0  3  0  0  0  0  0  0
   -0.8130    0.8610   -0.8744 C   0  0  2  0  0  0  0  0  0  0  0  0
   -1.7096   -0.3313   -0.9004 C   0  0  2  0  0  0  0  0  0  0  0  0
   -3.0292    0.0515   -0.7308 O   0  0  0  0  0  0  0  0  0  0  0  0
   -1.3110   -1.2844    0.1827 C   0  0  2  0  0  0  0  0  0  0  0  0
   -2.3909   -2.1478    0.4430 O   0  0  0  0  0  0  0  0  0  0  0  0
   -1.0901   -0.4909    1.4524 C   0  0  1  0  0  0  0  0  0  0  0  0
   -1.1145   -1.2863    2.5879 O   0  0  0  0  0  0  0  0  0  0  0  0
    0.2207    0.2315    1.3226 C   0  0  0  0  0  3  0  0  0  0  0  0
    0.4323    0.6970   -0.0898 C   0  0  1  0  0  0  0  0  0  0  0  0
    1.5065   -0.1010   -0.7803 C   0  0  0  0  0  3  0  0  0  0  0  0
    2.6646   -0.1473    0.1710 C   0  0  0  0  0  0  0  0  0  0  0  0
    3.8144   -0.7054   -0.1503 C   0  0  0  0  0  0  0  0  0  0  0  0
    4.8161   -0.6917    0.8054 O   0  0  0  0  0  0  0  0  0  0  0  0
  1  2  1  0
  3  2  1  1
  3  4  1  0
  4  5  1  1
  4  6  1  0
  6  7  1  1
  6  8  1  0
  8  9  1  1
  8 10  1  0
 10 11  1  0
 11 12  1  6
 12 13  1  0
 13 14  2  3
 14 15  1  0
 11  3  1  0
M  RAD  3   2   2  10   2  12   2
M  END
>  <fragInfo>  (1) 
3 4 5 6 7 8 9 10 11
1 2
12
13 14 15


>  <torsionInfo>  (1) 
2 3 1 0
11 12 0 2
12 13 2 3


>  <atomInfo>  (1) 
1  -0.0618688C 
2  -0.0356158C 
3  -0.0059714C 
4  0.08579852C 
5  -0.3900140OA
6  0.10625847C 
7  -0.3876959OA
8  0.08590779C 
9  -0.3900120OA
10 -0.0031142C 
11 -0.0229597C 
12 -0.0097522C 
13 -0.0460919C 
14 0.07544012C 
15 -0.5159193OA


$$$$
