
     RDKit          3D

 21 20  0  0  0  0  0  0  0  0999 V2000
   -5.1438   -1.2531   -1.2190 O   0  0  0  0  0  0  0  0  0  0  0  0
   -4.7767    0.0755   -1.5007 C   0  0  0  0  0  0  0  0  0  0  0  0
   -3.6395    0.5195   -0.6043 C   0  0  0  0  0  3  0  0  0  0  0  0
   -3.2249   -0.5304    0.3062 N   0  0  0  0  0  0  0  0  0  0  0  0
   -1.8385   -0.4014    0.7019 C   0  0  2  0  0  0  0  0  0  0  0  0
   -1.6527    0.9071    1.4605 C   0  0  0  0  0  0  0  0  0  0  0  0
   -2.4817    0.8695    2.5917 O   0  0  0  0  0  0  0  0  0  0  0  0
   -3.8116    0.7306    2.2673 C   0  0  0  0  0  3  0  0  0  0  0  0
   -4.4215   -0.3134    2.9680 O   0  0  0  0  0  0  0  0  0  0  0  0
   -0.9128   -0.4290   -0.5015 C   0  0  2  0  0  0  0  0  0  0  0  0
   -1.0604   -1.6243   -1.1854 O   0  0  0  0  0  0  0  0  0  0  0  0
    0.4944   -0.1395   -0.1048 C   0  0  1  0  0  0  0  0  0  0  0  0
    0.9633   -1.1420    0.7196 O   0  0  0  0  0  0  0  0  0  0  0  0
    1.3174    0.1905   -1.1494 O   0  0  0  0  0  0  0  0  0  0  0  0
    2.5393    0.4438   -0.8295 O   0  0  0  0  0  0  0  0  0  0  0  0
    3.4322   -0.0897   -1.6060 O   0  0  0  0  0  0  0  0  0  0  0  0
    4.7177    0.0061   -1.1389 C   0  0  1  0  0  0  0  0  0  0  0  0
    5.7253   -0.6271   -2.0679 C   0  0  0  0  0  0  0  0  0  0  0  0
    5.1255    1.2624   -0.7576 O   0  0  0  0  0  0  0  0  0  0  0  0
    4.2873    1.7166    0.2770 C   0  0  0  0  0  0  0  0  0  0  0  0
    4.3618    0.8495    1.3728 O   0  0  0  0  0  0  0  0  0  0  0  0
  1  2  1  0
  2  3  1  0
  3  4  1  0
  4  5  1  0
  5  6  1  6
  6  7  1  0
  7  8  1  0
  8  9  1  0
  5 10  1  0
 10 11  1  1
 10 12  1  0
 12 13  1  6
 12 14  1  0
 14 15  1  0
 15 16  1  0
 16 17  1  0
 17 18  1  6
 17 19  1  0
 19 20  1  0
 20 21  1  0
M  RAD  2   3   2   8   2
M  END
>  <fragInfo>  (1) 
1 2
3
4
5
6
7
8 9
10 11
12 13
14
15
16
17 18
19
20 21


>  <torsionInfo>  (1) 
2 3 0 1
3 4 1 2
4 5 2 3
5 6 3 4
5 10 3 7
6 7 4 5
7 8 5 6
10 12 7 8
12 14 8 9
14 15 9 10
15 16 10 11
16 17 11 12
17 19 12 13
19 20 13 14


>  <atomInfo>  (1) 
1  -0.3946905OA
2  0.06004188C 
3  0.04808639C 
4  -0.3027837NA
5  0.06216460C 
6  0.06805311C 
7  -0.3463718OA
8  0.20629796C 
9  -0.3639425OA
10 0.12525292C 
11 -0.3859730OA
12 0.21931183C 
13 -0.3635142OA
14 -0.1711392OA
15 -0.0625456OA
16 -0.1740863OA
17 0.19376046C 
18 -0.0102252C 
19 -0.3239564OA
20 0.14634910C 
21 -0.3705126OA


$$$$
