
     RDKit          3D

 33 33  0  0  0  0  0  0  0  0999 V2000
   -3.7640   -0.3276   -0.0059 C   0  0  0  0  0  0  0  0  0  0  0  0
   -4.5348   -1.4633    0.5539 C   0  0  1  0  0  0  0  0  0  0  0  0
   -5.9550   -1.1655    0.8915 C   0  0  0  0  0  0  0  0  0  0  0  0
   -4.3536   -2.7329   -0.2305 C   0  0  0  0  0  0  0  0  0  0  0  0
   -3.7136   -3.8141    0.6277 C   0  0  0  0  0  0  0  0  0  0  0  0
   -2.7543   -4.6325   -0.2252 C   0  0  0  0  0  0  0  0  0  0  0  0
   -1.5328   -5.0498    0.5568 C   0  0  1  0  0  0  0  0  0  0  0  0
   -1.7137   -6.4530    1.1159 C   0  0  0  0  0  0  0  0  0  0  0  0
   -0.2993   -5.0473   -0.3172 C   0  0  0  0  0  3  0  0  0  0  0  0
    0.5499   -3.8333    0.0307 C   0  0  0  0  0  0  0  0  0  0  0  0
    2.0093   -4.2321   -0.0586 C   0  0  0  0  0  0  0  0  0  0  0  0
    2.8289   -2.9624   -0.0858 C   0  0  0  0  0  3  0  0  0  0  0  0
    4.1809   -3.2257   -0.6902 C   0  0  0  0  0  3  0  0  0  0  0  0
    4.7415   -1.9541   -1.3067 C   0  0  0  0  0  2  0  0  0  0  0  0
    4.9711   -0.9512   -0.2130 C   0  0  0  0  0  0  0  0  0  0  0  0
    6.3346   -1.0944    0.4346 C   0  0  0  0  0  0  0  0  0  0  0  0
    3.9400   -1.0990    0.8931 C   0  0  0  0  0  0  0  0  0  0  0  0
    4.8517    0.4847   -0.7131 C   0  0  0  0  0  0  0  0  0  0  0  0
    4.7512    1.3524    0.5369 C   0  0  0  0  0  0  0  0  0  0  0  0
    5.0197    2.8061    0.2315 C   0  0  0  0  0  0  0  0  0  0  0  0
    3.7831    3.3459   -0.4736 C   0  0  0  0  0  0  0  0  0  0  0  0
    3.1721    4.4210    0.4095 C   0  0  0  0  0  0  0  0  0  0  0  0
    1.8183    4.4593    0.1222 O   0  0  0  0  0  0  0  0  0  0  0  0
    1.2100    5.6242    0.5942 C   0  0  0  0  0  0  0  0  0  0  0  0
   -0.2683    5.3387    0.7801 C   0  0  0  0  0  3  0  0  0  0  0  0
   -0.6249    3.9670    0.2217 C   0  0  2  0  0  0  0  0  0  0  0  0
   -0.8139    4.0252   -1.1541 O   0  0  0  0  0  0  0  0  0  0  0  0
   -1.8466    3.4160    0.9133 C   0  0  0  0  0  3  0  0  0  0  0  0
   -3.0705    4.1452    0.4305 C   0  0  0  0  0  0  0  0  0  0  0  0
   -3.9985    3.2198   -0.3420 C   0  0  0  0  0  0  0  0  0  0  0  0
   -4.3656    2.0202    0.4935 C   0  0  0  0  0  0  0  0  0  0  0  0
   -4.5620    0.8495   -0.4293 C   0  0  2  0  0  0  0  0  0  0  0  0
   -5.9907    0.5631   -0.7475 C   0  0  0  0  0  2  0  0  0  0  0  0
  1  2  1  0
  2  3  1  6
  2  4  1  0
  4  5  1  0
  5  6  1  0
  6  7  1  0
  7  8  1  6
  7  9  1  0
  9 10  1  0
 10 11  1  0
 11 12  1  0
 12 13  1  0
 13 14  1  0
 14 15  1  0
 15 16  1  0
 15 17  1  0
 15 18  1  0
 18 19  1  0
 19 20  1  0
 20 21  1  0
 21 22  1  0
 22 23  1  0
 23 24  1  0
 24 25  1  0
 25 26  1  0
 26 27  1  6
 26 28  1  0
 28 29  1  0
 29 30  1  0
 30 31  1  0
 31 32  1  0
 32 33  1  1
 32  1  1  0
M  RAD  7   9   2  12   2  13   2  14   3  25   2  28   2  33   3
M  END
>  <fragInfo>  (1) 
1 2 3 4 5 6 7 8 9 10 11 12 13 14 15 16 17 18 19 20 21 22 23 24 25 26 27 28 29 30 31 32 33


>  <torsionInfo>  (1) 


>  <atomInfo>  (1) 
1  -0.0475680C 
2  -0.0440059C 
3  -0.0624993C 
4  -0.0506907C 
5  -0.0527880C 
6  -0.0504264C 
7  -0.0411603C 
8  -0.0622342C 
9  -0.0357399C 
10 -0.0496334C 
11 -0.0495907C 
12 -0.0345442C 
13 -0.0272408C 
14 -0.0071751C 
15 -0.0283108C 
16 -0.0593231C 
17 -0.0593231C 
18 -0.0475390C 
19 -0.0526919C 
20 -0.0510938C 
21 -0.0296029C 
22 0.04657025C 
23 -0.3810476OA
24 0.05230905C 
25 0.01604022C 
26 0.06261538C 
27 -0.3924343OA
28 -0.0095765C 
29 -0.0475949C 
30 -0.0526600C 
31 -0.0501398C 
32 -0.0377606C 
33 -0.0317903C 


$$$$
