
     RDKit          3D

 15 16  0  0  0  0  0  0  0  0999 V2000
   -0.1843    2.6068    1.2619 C   0  0  0  0  0  0  0  0  0  0  0  0
   -1.0997    1.4899    0.7815 C   0  0  1  0  0  0  0  0  0  0  0  0
   -1.1111    1.5290   -0.7407 C   0  0  0  0  0  0  0  0  0  0  0  0
   -1.7439    0.3304   -1.3622 C   0  0  2  0  0  0  0  0  0  0  0  0
   -3.1098    0.4962   -1.3561 O   0  0  0  0  0  0  0  0  0  0  0  0
   -1.2717   -0.9764   -0.7995 C   0  0  2  0  0  0  0  0  0  0  0  0
   -1.9519   -2.0355   -1.3401 O   0  0  0  0  0  0  0  0  0  0  0  0
   -1.3723   -0.9162    0.7102 C   0  0  1  0  0  0  0  0  0  0  0  0
   -1.1055   -2.1256    1.3205 O   0  0  0  0  0  0  0  0  0  0  0  0
   -0.4011    0.1785    1.1458 C   0  0  1  0  0  0  0  0  0  0  0  0
    0.7282    0.0965    0.2188 N   0  0  0  0  0  0  0  0  0  0  0  0
    1.8604   -0.5860    0.7905 C   0  0  0  0  0  3  0  0  0  0  0  0
    2.9519   -0.5258   -0.2734 C   0  0  2  0  0  0  0  0  0  0  0  0
    4.2915   -0.4028   -0.1368 C   0  0  0  0  0  0  0  0  0  0  0  0
    3.5194    0.8409   -0.2203 O   0  0  0  0  0  0  0  0  0  0  0  0
  2  1  1  1
  2  3  1  0
  3  4  1  0
  4  5  1  1
  4  6  1  0
  6  7  1  6
  6  8  1  0
  8  9  1  1
  8 10  1  0
 10 11  1  6
 11 12  1  0
 13 12  1  1
 13 14  1  0
 13 15  1  0
 10  2  1  0
 15 14  1  0
M  RAD  1  12   2
M  END
>  <fragInfo>  (1) 
1 2 3 4 5 6 7 8 9 10
11
12
13 14 15


>  <torsionInfo>  (1) 
10 11 0 1
11 12 1 2
12 13 2 3


>  <atomInfo>  (1) 
1  -0.0608233C 
2  -0.0236268C 
3  -0.0201755C 
4  0.08280077C 
5  -0.3903155OA
6  0.10722524C 
7  -0.3876533OA
8  0.09793081C 
9  -0.3886791OA
10 0.03848774C 
11 -0.3042404NA
12 0.05387223C 
13 0.09782891C 
14 0.07501750C 
15 -0.3713638OA


$$$$
