
     RDKit          3D

 21 20  0  0  0  0  0  0  0  0999 V2000
   -6.2751   -1.3093    1.9764 C   0  0  0  0  0  0  0  0  0  0  0  0
   -5.7258   -0.8815    0.6130 C   0  0  0  0  0  0  0  0  0  0  0  0
   -6.8987   -0.6474   -0.3134 C   0  0  0  0  0  0  0  0  0  0  0  0
   -4.9522    0.4008    0.8566 C   0  0  0  0  0  0  0  0  0  0  0  0
   -3.8488    0.0809    1.8406 C   0  0  0  0  0  0  0  0  0  0  0  0
   -2.9077   -0.9919    1.2896 C   0  0  0  0  0  0  0  0  0  0  0  0
   -2.3262   -0.4041    0.0002 C   0  0  1  0  0  0  0  0  0  0  0  0
   -3.4459   -0.0945   -0.9911 C   0  0  0  0  0  0  0  0  0  0  0  0
   -1.7160    0.9334    0.3840 C   0  0  0  0  0  3  0  0  0  0  0  0
   -1.1218    1.5774   -0.8291 C   0  0  0  0  0  0  0  0  0  0  0  0
   -0.0463    0.6322   -1.3671 C   0  0  0  0  0  0  0  0  0  0  0  0
    0.9932    0.4555   -0.2535 C   0  0  2  0  0  0  0  0  0  0  0  0
    1.5981    1.7972    0.1056 C   0  0  0  0  0  0  0  0  0  0  0  0
    2.0921   -0.4058   -0.8299 C   0  0  0  0  0  0  0  0  0  0  0  0
    3.1822   -0.6416    0.2068 C   0  0  2  0  0  0  0  0  0  0  0  0
    3.7462    0.6806    0.6109 C   0  0  0  0  0  0  0  0  0  0  0  0
    4.2059   -1.5935   -0.3608 C   0  0  0  0  0  0  0  0  0  0  0  0
    4.8057   -0.9874   -1.6068 C   0  0  0  0  0  0  0  0  0  0  0  0
    5.4151    0.2346   -1.2382 O   0  0  0  0  0  0  0  0  0  0  0  0
    6.4454    0.1756   -0.2855 C   0  0  0  0  0  0  0  0  0  0  0  0
    6.7806   -0.9227    0.1916 O   0  0  0  0  0  0  0  0  0  0  0  0
  1  2  1  0
  2  3  1  0
  2  4  1  0
  4  5  1  0
  5  6  1  0
  6  7  1  0
  7  8  1  6
  7  9  1  0
  9 10  1  0
 10 11  1  0
 11 12  1  0
 12 13  1  6
 12 14  1  0
 14 15  1  0
 15 16  1  6
 15 17  1  0
 17 18  1  0
 18 19  1  0
 19 20  1  0
 20 21  2  0
M  RAD  1   9   2
M  END
>  <fragInfo>  (1) 
1 2 3
4
5
6
7 8
9
10
11
12 13
14
15 16
17
18
19
20 21


>  <torsionInfo>  (1) 
2 4 0 1
4 5 1 2
5 6 2 3
6 7 3 4
7 9 4 5
9 10 5 6
10 11 6 7
11 12 7 8
12 14 8 9
14 15 9 10
15 17 10 11
17 18 11 12
18 19 12 13
19 20 13 14


>  <atomInfo>  (1) 
1  -0.0627736C 
2  -0.0471324C 
3  -0.0627736C 
4  -0.0509643C 
5  -0.0527983C 
6  -0.0504266C 
7  -0.0411603C 
8  -0.0622342C 
9  -0.0357404C 
10 -0.0496644C 
11 -0.0504170C 
12 -0.0440140C 
13 -0.0624995C 
14 -0.0479915C 
15 -0.0407899C 
16 -0.0623739C 
17 -0.0160484C 
18 0.09125004C 
19 -0.4678900OA
20 0.29257568C 
21 -0.2561388OA


$$$$
