
     RDKit          3D

  9  9  0  0  0  0  0  0  0  0999 V2000
    1.9463   -0.3447    0.6102 C   0  0  0  0  0  0  0  0  0  0  0  0
    1.3152   -1.5622    0.3532 O   0  0  0  0  0  0  0  0  0  0  0  0
    0.0180   -1.3532   -0.1254 C   0  0  0  0  0  3  0  0  0  0  0  0
   -0.7067   -0.7109    0.8857 O   0  0  0  0  0  0  0  0  0  0  0  0
   -1.5232    0.2652    0.3336 C   0  0  2  0  0  0  0  0  0  0  0  0
   -1.9029   -0.0697   -1.0829 C   0  0  0  0  0  0  0  0  0  0  0  0
   -0.9139    1.6373    0.4221 C   0  0  0  0  0  3  0  0  0  0  0  0
    0.5233    1.4530    0.8966 C   0  0  0  0  0  3  0  0  0  0  0  0
    1.2438    0.6851   -0.0291 O   0  0  0  0  0  0  0  0  0  0  0  0
  1  2  1  0
  2  3  1  0
  3  4  1  0
  4  5  1  0
  5  6  1  6
  5  7  1  0
  7  8  1  0
  8  9  1  0
  9  1  1  0
M  RAD  3   3   2   7   2   8   2
M  END
>  <fragInfo>  (1) 
1 2 3 4 5 6 7 8 9


>  <torsionInfo>  (1) 


>  <atomInfo>  (1) 
1  0.15017148C 
2  -0.3212305OA
3  0.21152995C 
4  -0.3444452OA
5  0.06391172C 
6  -0.0381602C 
7  0.02178836C 
8  0.09272274C 
9  -0.3489442OA


$$$$
