
     RDKit          3D

 23 25  0  0  0  0  0  0  0  0999 V2000
    2.7637    2.8088    1.0945 C   0  0  0  0  0  0  0  0  0  0  0  0
    2.3168    1.4952    1.7033 C   0  0  0  0  0  3  0  0  0  0  0  0
    2.2661    0.4918    0.5868 C   0  0  1  0  0  0  0  0  0  0  0  0
    1.8234   -0.8869    1.0832 C   0  0  2  0  0  0  0  0  0  0  0  0
    2.8830   -1.7714    1.1455 O   0  0  0  0  0  0  0  0  0  0  0  0
    0.8060   -1.2781    0.0356 C   0  0  2  0  0  0  0  0  0  0  0  0
   -0.0472   -2.2674    0.3449 O   0  0  0  0  0  0  0  0  0  0  0  0
    1.4682   -1.2621   -1.2831 C   0  0  1  0  0  0  0  0  0  0  0  0
    0.8476   -1.9850   -2.2738 O   0  0  0  0  0  0  0  0  0  0  0  0
    1.6786    0.0743   -1.6294 O   0  0  0  0  0  0  0  0  0  0  0  0
    1.4221    0.9614   -0.5824 C   0  0  1  0  0  0  0  0  0  0  0  0
    0.0155    0.9321   -0.2169 C   0  0  1  0  0  0  0  0  0  0  0  0
   -0.3648    1.4214    1.1514 C   0  0  0  0  0  0  0  0  0  0  0  0
   -1.5255    0.5647    1.4747 N   0  0  0  0  0  0  0  0  0  0  0  0
   -2.1627    1.0670    2.5785 O   0  0  0  0  0  0  0  0  0  0  0  0
   -1.2005   -0.7499    1.5982 N   0  0  0  0  0  0  0  0  0  0  0  0
   -1.2933   -1.5833    0.4738 C   0  0  1  0  0  0  0  0  0  0  0  0
   -1.6132   -0.9923   -0.8270 C   0  0  1  0  0  0  0  0  0  0  0  0
   -2.3251   -1.8713   -1.6351 O   0  0  0  0  0  0  0  0  0  0  0  0
   -2.1737    0.3747   -0.8618 C   0  0  2  0  0  0  0  0  0  0  0  0
   -3.0640    0.5079   -1.9343 O   0  0  0  0  0  0  0  0  0  0  0  0
   -1.0100    1.3377   -1.1928 C   0  0  1  0  0  0  0  0  0  0  0  0
   -1.5109    2.6106   -0.8339 O   0  0  0  0  0  0  0  0  0  0  0  0
  1  2  1  0
  3  2  1  1
  3  4  1  0
  4  5  1  6
  4  6  1  0
  6  7  1  1
  6  8  1  0
  8  9  1  6
  8 10  1  0
 11 10  1  6
 11 12  1  0
 12 13  1  1
 13 14  1  0
 14 15  1  0
 14 16  1  0
 17 16  1  1
 17 18  1  0
 18 19  1  1
 18 20  1  0
 20 21  1  6
 20 22  1  0
 22 23  1  1
 11  3  1  0
 17  7  1  0
 22 12  1  0
M  RAD  1   2   2
M  END
>  <fragInfo>  (1) 
3 4 5 6 7 8 9 10 11 12 13 14 15 16 17 18 19 20 21 22 23
1 2


>  <torsionInfo>  (1) 
2 3 1 0


>  <atomInfo>  (1) 
1  -0.0617809C 
2  -0.0333189C 
3  0.01724959C 
4  0.09080779C 
5  -0.3898055OA
6  0.13653081C 
7  -0.3479048OA
8  0.18362148C 
9  -0.3657268OA
10 -0.3459295OA
11 0.07317441C 
12 0.03081680C 
13 0.04784955C 
14 -0.1241919NA
15 -0.2990023OA
16 -0.2015269NA
17 0.15143889C 
18 0.12309756C 
19 -0.3860990OA
20 0.11006816C 
21 -0.3875366OA
22 0.08925490C 
23 -0.3898749OA


$$$$
