
     RDKit          3D

 23 24  0  0  0  0  0  0  0  0999 V2000
   -2.6273    0.5364    1.8392 C   0  0  0  0  0  0  0  0  0  0  0  0
   -2.7084   -0.7496    1.0250 C   0  0  1  0  0  0  0  0  0  0  0  0
   -4.0682   -0.7350    0.3385 C   0  0  0  0  0  0  0  0  0  0  0  0
   -4.2547    0.6724   -0.1967 C   0  0  2  0  0  0  0  0  0  0  0  0
   -5.5320    0.7432   -0.7233 O   0  0  0  0  0  0  0  0  0  0  0  0
   -3.2170    0.8951   -1.2630 C   0  0  2  0  0  0  0  0  0  0  0  0
   -3.4021   -0.0069   -2.3140 O   0  0  0  0  0  0  0  0  0  0  0  0
   -1.8290    0.7016   -0.7193 C   0  0  1  0  0  0  0  0  0  0  0  0
   -1.4441    1.7034    0.1590 O   0  0  0  0  0  0  0  0  0  0  0  0
   -1.6802   -0.6589   -0.0951 C   0  0  1  0  0  0  0  0  0  0  0  0
   -0.3670   -0.8331    0.4688 N   0  0  0  0  0  0  0  0  0  0  0  0
    0.6030   -0.0717   -0.2884 C   0  0  1  0  0  0  0  0  0  0  0  0
    1.2217    0.9294    0.6490 C   0  0  0  0  0  0  0  0  0  0  0  0
    2.4699    1.5219    0.0258 C   0  0  1  0  0  0  0  0  0  0  0  0
    2.4934    2.8958    0.2957 O   0  0  0  0  0  0  0  0  0  0  0  0
    3.6490    0.8051    0.6520 C   0  0  1  0  0  0  0  0  0  0  0  0
    3.3884    0.4812    1.9837 O   0  0  0  0  0  0  0  0  0  0  0  0
    3.8690   -0.4792   -0.1216 C   0  0  1  0  0  0  0  0  0  0  0  0
    5.0666   -1.0599    0.2574 O   0  0  0  0  0  0  0  0  0  0  0  0
    2.7001   -1.4121    0.0505 C   0  0  2  0  0  0  0  0  0  0  0  0
    3.1260   -2.7141   -0.2234 O   0  0  0  0  0  0  0  0  0  0  0  0
    1.6043   -1.0019   -0.9127 C   0  0  1  0  0  0  0  0  0  0  0  0
    0.9385   -2.1631   -1.3258 O   0  0  0  0  0  0  0  0  0  0  0  0
  2  1  1  1
  2  3  1  0
  3  4  1  0
  4  5  1  6
  4  6  1  0
  6  7  1  6
  6  8  1  0
  8  9  1  1
  8 10  1  0
 10 11  1  1
 12 11  1  1
 12 13  1  0
 13 14  1  0
 14 15  1  1
 14 16  1  0
 16 17  1  1
 16 18  1  0
 18 19  1  1
 18 20  1  0
 20 21  1  6
 20 22  1  0
 22 23  1  1
 10  2  1  0
 22 12  1  0
M  END
>  <fragInfo>  (1) 
12 13 14 15 16 17 18 19 20 21 22 23
1 2 3 4 5 6 7 8 9 10
11


>  <torsionInfo>  (1) 
11 12 2 0
10 11 1 2


>  <atomInfo>  (1) 
1  -0.0608233C 
2  -0.0236278C 
3  -0.0201755C 
4  0.08280077C 
5  -0.3903155OA
6  0.10722523C 
7  -0.3876533OA
8  0.09792984C 
9  -0.3886791OA
10 0.03843321C 
11 -0.3055406NA
12 0.03832830C 
13 -0.0062279C 
14 0.08411098C 
15 -0.3902621OA
16 0.10838768C 
17 -0.3876078OA
18 0.11083671C 
19 -0.3875007OA
20 0.10986412C 
21 -0.3875427OA
22 0.09787571C 
23 -0.3886865OA


$$$$
