
     RDKit          3D

 64 67  0  0  0  0  0  0  0  0999 V2000
   -0.9044    1.0231   -0.2505 C   0  0  0  0  0  0  0  0  0  0  0  0
    0.0144    1.0407   -1.3934 C   0  0  1  0  0  0  0  0  0  0  0  0
   -0.7938    0.8150   -2.6737 C   0  0  0  0  0  0  0  0  0  0  0  0
    1.0480    2.0924   -1.4373 C   0  0  0  0  0  0  0  0  0  0  0  0
    2.0445    1.9075   -2.6112 C   0  0  0  0  0  0  0  0  0  0  0  0
    3.3343    2.6564   -2.2472 C   0  0  0  0  0  0  0  0  0  0  0  0
    3.6494    2.4940   -0.7661 C   0  0  1  0  0  0  0  0  0  0  0  0
    2.7581    1.4128   -0.2671 C   0  0  0  0  0  0  0  0  0  0  0  0
    5.0678    2.0446   -0.5164 C   0  0  0  0  0  3  0  0  0  0  0  0
    5.3629    1.7216    0.9023 C   0  0  0  0  0  0  0  0  0  0  0  0
    6.3933    0.7760    1.2343 C   0  0  0  0  0  0  0  0  0  0  0  0
    7.7797    1.2372    1.0544 C   0  0  0  0  0  0  0  0  0  0  0  0
    7.8024    2.3080   -0.0096 C   0  0  0  0  0  0  0  0  0  0  0  0
    8.2060    1.9381    2.4119 C   0  0  0  0  0  0  0  0  0  0  0  0
    8.8340    0.2117    0.7782 C   0  0  0  0  0  0  0  0  0  0  0  0
    9.0238   -0.4505   -0.2364 C   0  0  0  0  0  0  0  0  0  0  0  0
    9.4559   -1.2957   -1.2201 C   0  0  0  0  0  0  0  0  0  0  0  0
    8.6412   -2.5695   -1.5068 C   0  0  0  0  0  0  0  0  0  0  0  0
    7.1499   -2.2523   -1.2435 C   0  0  2  0  0  0  0  0  0  0  0  0
    7.0088   -0.7401   -1.5761 C   0  0  0  0  0  0  0  0  0  0  0  0
    6.9343   -2.4375    0.2906 C   0  0  0  0  0  0  0  0  0  0  0  0
    5.3906   -2.2366    0.4870 C   0  0  0  0  0  0  0  0  0  0  0  0
    4.9668   -1.3390   -0.6525 C   0  0  0  0  0  0  0  0  0  0  0  0
    3.5631   -1.6362   -1.0903 C   0  0  0  0  0  0  0  0  0  0  0  0
    3.2498   -1.2411   -2.5060 C   0  0  0  0  0  0  0  0  0  0  0  0
    2.6805   -2.1838   -0.3417 C   0  0  0  0  0  0  0  0  0  0  0  0
    2.7879   -2.6682    1.0705 C   0  0  0  0  0  0  0  0  0  0  0  0
    1.0817   -2.1797    1.7702 S   0  0  0  0  0  0  0  0  0  0  0  0
    0.8745   -0.5287    1.2665 C   0  0  0  0  0  0  0  0  0  0  0  0
   -0.6370    0.2810    1.1323 S   0  0  0  0  0  0  0  0  0  0  0  0
   -1.9520   -0.9595    1.1093 C   0  0  0  0  0  0  0  0  0  0  0  0
   -2.6782   -1.8215    0.6959 C   0  0  0  0  0  0  0  0  0  0  0  0
   -3.9603   -2.4246    1.8891 S   0  0  0  0  0  0  0  0  0  0  0  0
   -2.5681   -2.7154   -0.5555 C   0  0  1  0  0  0  0  0  0  0  0  0
   -1.0116   -2.5697   -1.4770 S   0  0  0  0  0  0  0  0  0  0  0  0
   -2.6475   -4.1736    0.0349 C   0  0  0  0  0  0  0  0  0  0  0  0
   -3.7283   -3.7580    0.6929 C   0  0  0  0  0  0  0  0  0  0  0  0
   -3.8499   -2.9022   -1.4812 S   0  0  0  0  0  0  0  0  0  0  0  0
   -5.3309   -2.0216   -1.3545 C   0  0  0  0  0  0  0  0  0  0  0  0
   -4.0796   -4.6593   -2.0551 C   0  0  0  0  0  0  0  0  0  0  0  0
   -4.9879   -5.0506   -1.3249 C   0  0  0  0  0  0  0  0  0  0  0  0
   -6.1552   -5.5476   -0.3750 S   0  0  0  0  0  0  0  0  0  0  0  0
   -7.2757   -6.0198    0.5557 C   0  0  0  0  0  3  0  0  0  0  0  0
   -8.3946   -4.8168    0.4661 C   0  0  0  0  0  2  0  0  0  0  0  0
   -7.4052   -3.3328    0.9789 S   0  0  0  0  0  0  0  0  0  0  0  0
   -6.9271   -3.3152    2.6723 C   0  0  0  0  0  0  0  0  0  0  0  0
   -6.2045   -2.1750    3.2533 C   0  0  0  0  0  3  0  0  0  0  0  0
   -5.3150   -1.4181    2.2133 C   0  0  2  0  0  0  0  0  0  0  0  0
   -6.4638   -0.9360    0.8893 S   0  0  0  0  0  0  0  0  0  0  0  0
   -4.9856   -0.0713    2.8981 C   0  0  0  0  0  0  0  0  0  0  0  0
   -5.4716    1.0474    2.0281 C   0  0  0  0  0  0  0  0  0  0  0  0
   -4.3660    1.9660    1.6908 C   0  0  0  0  0  0  0  0  0  0  0  0
   -4.5232    2.6560    0.3669 C   0  0  0  0  0  0  0  0  0  0  0  0
   -4.3809    1.7588   -0.8417 C   0  0  0  0  0  3  0  0  0  0  0  0
   -2.9802    1.9501   -1.3930 C   0  0  0  0  0  0  0  0  0  0  0  0
   -2.0701    1.9521   -0.2566 C   0  0  2  0  0  0  0  0  0  0  0  0
   -1.8998    3.1676    0.5742 C   0  0  0  0  0  0  0  0  0  0  0  0
   -0.7792    4.0674    0.2172 C   0  0  0  0  0  3  0  0  0  0  0  0
   -0.8606    4.6997   -1.1283 C   0  0  0  0  0  0  0  0  0  0  0  0
   -2.0845    5.5363   -1.3792 C   0  0  0  0  0  2  0  0  0  0  0  0
   -2.7045    6.2144    0.2117 S   0  0  0  0  0  0  0  0  0  0  0  0
   -2.7921    8.0063    0.0913 C   0  0  0  0  0  0  0  0  0  0  0  0
   -1.4253    8.6031   -0.0974 C   0  0  0  0  0  0  0  0  0  0  0  0
   -0.5096    8.8617    0.9352 S   0  0  0  0  0  0  0  0  0  0  0  0
  1  2  1  0
  2  3  1  6
  2  4  1  0
  4  5  1  0
  5  6  1  0
  6  7  1  0
  7  8  1  6
  7  9  1  0
  9 10  1  0
 10 11  1  0
 11 12  1  0
 12 13  1  0
 12 14  1  0
 12 15  1  0
 15 16  2  3
 16 17  1  0
 17 18  1  0
 18 19  1  0
 19 20  1  1
 19 21  1  0
 21 22  1  0
 22 23  1  0
 23 24  1  0
 24 25  1  0
 24 26  2  3
 26 27  1  0
 27 28  1  0
 28 29  1  0
 30 29  1  6
 30 31  1  0
 31 32  2  3
 32 33  1  0
 32 34  1  0
 34 35  1  6
 34 36  1  0
 36 37  2  0
 37 38  2  0
 38 39  1  0
 38 40  1  0
 40 41  1  0
 41 42  3  0
 42 43  1  0
 43 44  1  0
 44 45  1  0
 45 46  1  0
 46 47  1  0
 47 48  1  0
 48 49  1  6
 48 50  1  0
 50 51  1  0
 51 52  1  0
 52 53  1  0
 53 54  1  0
 54 55  1  0
 55 56  1  0
 56 57  1  6
 57 58  1  0
 58 59  1  0
 59 60  1  0
 60 61  1  0
 61 62  1  0
 62 63  1  0
 63 64  2  0
  1 30  2  3
 56  1  1  0
 48 33  1  0
 38 34  1  0
M  RAD  7   9   2  43   2  44   3  47   2  54   2  58   2  60   3
M  END
>  <fragInfo>  (1) 
1 2 3 4 5 6 7 8 9 10 11 12 13 14 15 16 17 18 19 20 21 22 23 24 25 26 27 28 29 30 31 32 33 34 35 36 37 38 39 40 41 42 43 44 45 46 47 48 49 50 51 52 53 54 55 56
57
58
59
60
61
62
63 64


>  <torsionInfo>  (1) 
56 57 0 1
57 58 1 2
58 59 2 3
59 60 3 4
60 61 4 5
61 62 5 6
62 63 6 7


>  <atomInfo>  (1) 
1  -0.0362682C 
2  -0.0170534C 
3  -0.0582347C 
4  -0.0464450C 
5  -0.0524630C 
6  -0.0504149C 
7  -0.0411598C 
8  -0.0622342C 
9  -0.0357189C 
10 -0.0491118C 
11 -0.0443575C 
12 -0.0174740C 
13 -0.0564081C 
14 -0.0564081C 
15 -0.0828610C 
16 -0.0879904C 
17 -0.0347992C 
18 -0.0472307C 
19 -0.0439744C 
20 -0.0624985C 
21 -0.0503954C 
22 -0.0493143C 
23 -0.0322684C 
24 -0.0764880C 
25 -0.0439051C 
26 -0.0756413C 
27 0.01236280C 
28 -0.1470666SA
29 0.03831542C 
30 -0.1512311S 
31 -0.0218453C 
32 0.02100528C 
33 -0.1095242SA
34 0.10167090C 
35 -0.1530438SA
36 -0.0084174C 
37 -0.1101795C 
38 -0.1939131S 
39 -0.0314046C 
40 0.04327561C 
41 -0.0813217C 
42 -0.1273473SA
43 0.06386378C 
44 0.06812354C 
45 -0.1500711SA
46 -0.0006701C 
47 -0.0024066C 
48 0.06656040C 
49 -0.1608458SA
50 -0.0287316C 
51 -0.0511459C 
52 -0.0529507C 
53 -0.0501595C 
54 -0.0379743C 
55 -0.0430579C 
56 -0.0136747C 
57 -0.0430048C 
58 -0.0364950C 
59 -0.0324537C 
60 0.04872095C 
61 -0.1470848SA
62 0.02241735C 
63 -0.0110939C 
64 -0.0925727S 


$$$$
