
     RDKit          3D

 31 33  0  0  0  0  0  0  0  0999 V2000
   -5.0994    0.7114    3.2004 C   0  0  0  0  0  0  0  0  0  0  0  0
   -4.9383    1.3560    1.8825 O   0  0  0  0  0  0  0  0  0  0  0  0
   -5.9724    0.9687    0.9715 C   0  0  0  0  0  0  0  0  0  0  0  0
   -7.1985    0.8129    1.0955 C   0  0  0  0  0  0  0  0  0  0  0  0
   -7.9878    0.2940    0.0568 C   0  0  0  0  0  0  0  0  0  0  0  0
   -7.4242   -0.1157   -1.0493 C   0  0  0  0  0  0  0  0  0  0  0  0
   -6.0664    0.0308   -1.2693 C   0  0  0  0  0  0  0  0  0  0  0  0
   -5.2821    0.6741   -0.2077 C   0  0  0  0  0  0  0  0  0  0  0  0
   -3.9909    0.8279   -0.5861 O   0  0  0  0  0  0  0  0  0  0  0  0
   -2.7116    0.6513   -0.2409 C   0  0  2  0  0  0  0  0  0  0  0  0
   -2.7866   -0.7889   -0.6880 O   0  0  0  0  0  0  0  0  0  0  0  0
   -1.7371   -1.0215   -1.4909 C   0  0  0  0  0  0  0  0  0  0  0  0
   -0.5328   -1.2113   -0.6716 N   0  0  0  0  0  0  0  0  0  0  0  0
   -1.0126   -1.3755    0.6948 C   0  0  0  0  0  0  0  0  0  0  0  0
   -2.2523    0.7756    1.0390 C   0  0  0  0  0  0  0  0  0  0  0  0
   -1.0992   -0.1013    1.4517 C   0  0  2  0  0  0  0  0  0  0  0  0
    0.1506    0.5985    1.5689 N   0  0  0  0  0  0  0  0  0  0  0  0
    1.2261   -0.2946    1.7237 N   0  0  0  0  0  0  0  0  0  0  0  0
    2.1968   -0.3785    0.9743 C   0  0  0  0  0  0  0  0  0  0  0  0
    2.5768    0.3870   -0.2360 C   0  0  0  0  0  0  0  0  0  0  0  0
    3.3481    1.5674    0.1716 C   0  0  0  0  0  0  0  0  0  0  0  0
    1.2130    0.9571   -0.8350 C   0  0  0  0  0  0  0  0  0  0  0  0
    3.2932   -0.4099   -1.2034 C   0  0  0  0  0  0  0  0  0  0  0  0
    4.1034    0.3714   -2.2969 C   0  0  0  0  0  0  0  0  0  0  0  0
    5.3997    0.7607   -1.4184 C   0  0  0  0  0  0  0  0  0  0  0  0
    5.8144   -0.6185   -0.7287 C   0  0  2  0  0  0  0  0  0  0  0  0
    6.2624   -0.2905    0.6485 C   0  0  0  0  0  0  0  0  0  0  0  0
    7.4850    0.5286    0.7133 C   0  0  0  0  0  0  0  0  0  0  0  0
    8.1447    0.5893   -0.6635 C   0  0  0  0  0  0  0  0  0  0  0  0
    8.0819   -0.8268   -1.1714 C   0  0  0  0  0  0  0  0  0  0  0  0
    6.7962   -1.2612   -1.4356 O   0  0  0  0  0  0  0  0  0  0  0  0
  1  2  1  0
  2  3  1  0
  3  4  2  0
  4  5  1  0
  5  6  2  0
  6  7  1  0
  7  8  2  0
  8  9  1  0
 10  9  1  1
 10 11  1  0
 11 12  1  0
 12 13  1  0
 13 14  1  0
 10 15  1  0
 15 16  1  0
 16 17  1  6
 17 18  1  0
 18 19  2  3
 19 20  1  0
 20 21  1  0
 20 22  1  0
 20 23  1  0
 23 24  1  0
 24 25  1  0
 26 25  1  6
 26 27  1  0
 27 28  1  0
 28 29  1  0
 29 30  1  0
 30 31  1  0
  8  3  1  0
 16 14  1  0
 31 26  1  0
M  END
>  <fragInfo>  (1) 
10 11 12 13 14 15 16
1 2
3 4 5 6 7 8
9
17
18 19
20 21 22
23
24
25
26 27 28 29 30 31


>  <torsionInfo>  (1) 
9 10 3 0
16 17 0 4
2 3 1 2
8 9 2 3
17 18 4 5
19 20 5 6
20 23 6 7
23 24 7 8
24 25 8 9
25 26 9 10


>  <atomInfo>  (1) 
1  0.07771728C 
2  -0.4928675OA
3  0.16036902A 
4  -0.0160901A 
5  -0.0583063A 
6  -0.0583037A 
7  -0.0159349A 
8  0.16422333A 
9  -0.4609191OA
10 0.20306925C 
11 -0.3271516OA
12 0.10086371C 
13 -0.2924916NA
14 0.01939541C 
15 0.03310767C 
16 0.06244079C 
17 -0.3058005NA
18 -0.1922592NA
19 0.02986584C 
20 0.00176502C 
21 -0.0548323C 
22 -0.0548323C 
23 -0.0429742C 
24 -0.0499742C 
25 -0.0267019C 
26 0.05747335C 
27 -0.0266497C 
28 -0.0486462C 
29 -0.0294935C 
30 0.04693346C 
31 -0.3782232OA


$$$$
