
     RDKit          3D

 15 14  0  0  0  0  0  0  0  0999 V2000
   -5.1376    0.6579   -0.0066 O   0  0  0  0  0  0  0  0  0  0  0  0
   -3.9501    1.1652    0.5171 C   0  0  0  0  0  0  0  0  0  0  0  0
   -2.8238    1.0113   -0.4920 C   0  0  0  0  0  3  0  0  0  0  0  0
   -2.1247   -0.2282   -0.3601 N   0  0  0  0  0  0  0  0  0  0  0  0
   -0.7492   -0.1149   -0.0336 C   0  0  2  0  0  0  0  0  0  0  0  0
    0.1306    0.5724   -1.0074 C   0  0  0  0  0  0  0  0  0  0  0  0
   -0.1946    1.8711   -1.2792 O   0  0  0  0  0  0  0  0  0  0  0  0
   -0.1640   -1.4759    0.3329 C   0  0  1  0  0  0  0  0  0  0  0  0
   -0.3010   -2.3424   -0.7526 O   0  0  0  0  0  0  0  0  0  0  0  0
    1.3193   -1.3504    0.6377 C   0  0  2  0  0  0  0  0  0  0  0  0
    1.4998   -0.4929    1.7204 O   0  0  0  0  0  0  0  0  0  0  0  0
    1.9150   -0.8398   -0.5215 O   0  0  0  0  0  0  0  0  0  0  0  0
    3.2807   -0.6654   -0.3956 C   0  0  0  0  0  3  0  0  0  0  0  0
    3.5976    0.5206    0.5112 C   0  0  0  0  0  0  0  0  0  0  0  0
    3.7020    1.7113   -0.2045 O   0  0  0  0  0  0  0  0  0  0  0  0
  1  2  1  0
  2  3  1  0
  3  4  1  0
  4  5  1  0
  5  6  1  6
  6  7  1  0
  5  8  1  0
  8  9  1  6
  8 10  1  0
 10 11  1  1
 10 12  1  0
 12 13  1  0
 13 14  1  0
 14 15  1  0
M  RAD  2   3   2  13   2
M  END
>  <fragInfo>  (1) 
1 2
3
4
5
6 7
8 9
10 11
12
13
14 15


>  <torsionInfo>  (1) 
2 3 0 1
3 4 1 2
4 5 2 3
5 6 3 4
5 8 3 5
8 10 5 6
10 12 6 7
12 13 7 8
13 14 8 9


>  <atomInfo>  (1) 
1  -0.3946905OA
2  0.06004188C 
3  0.04808625C 
4  -0.3027953NA
5  0.06164152C 
6  0.06116347C 
7  -0.3946470OA
8  0.12211593C 
9  -0.3860964OA
10 0.18252288C 
11 -0.3657614OA
12 -0.3416313OA
13 0.11228687C 
14 0.07213052C 
15 -0.3935665OA


$$$$
