
     RDKit          3D

 26 26  0  0  0  0  0  0  0  0999 V2000
   -2.8112    0.5590   -2.3425 O   0  0  0  0  0  0  0  0  0  0  0  0
   -2.0484    1.6665   -1.9947 C   0  0  0  0  0  0  0  0  0  0  0  0
   -1.9189    1.8233   -0.5120 C   0  0  0  0  0  3  0  0  0  0  0  0
   -2.5898    0.8256    0.2539 N   0  0  0  0  0  0  0  0  0  0  0  0
   -4.0065    0.7607    0.0546 C   0  0  2  0  0  0  0  0  0  0  0  0
   -4.5951    2.0956    0.4970 C   0  0  0  0  0  0  0  0  0  0  0  0
   -5.9624    2.0844    0.3245 O   0  0  0  0  0  0  0  0  0  0  0  0
   -4.5863   -0.3429    0.8890 C   0  0  1  0  0  0  0  0  0  0  0  0
   -5.8937   -0.6211    0.4876 O   0  0  0  0  0  0  0  0  0  0  0  0
   -3.7799   -1.5985    0.7612 C   0  0  2  0  0  0  0  0  0  0  0  0
   -4.3029   -2.6321    1.5000 O   0  0  0  0  0  0  0  0  0  0  0  0
   -2.4486   -1.3080    1.1334 O   0  0  0  0  0  0  0  0  0  0  0  0
   -1.9456   -0.4518    0.1811 C   0  0  2  0  0  0  0  0  0  0  0  0
   -0.4649   -0.2779    0.2162 C   0  0  0  0  0  0  0  0  0  0  0  0
    0.1809   -1.5194    0.1458 O   0  0  0  0  0  0  0  0  0  0  0  0
    1.5649   -1.3635    0.1782 C   0  0  1  0  0  0  0  0  0  0  0  0
    2.1582   -2.7697    0.0962 C   0  0  0  0  0  2  0  0  0  0  0  0
    1.9574   -0.6530   -1.1011 C   0  0  0  0  0  0  0  0  0  0  0  0
    3.3240   -0.4357   -1.1917 O   0  0  0  0  0  0  0  0  0  0  0  0
    3.8081    0.3394   -0.1577 C   0  0  0  0  0  3  0  0  0  0  0  0
    4.4051   -0.4912    0.7766 O   0  0  0  0  0  0  0  0  0  0  0  0
    5.5311    0.1977    1.2611 C   0  0  1  0  0  0  0  0  0  0  0  0
    6.2111   -0.6226    2.2543 N   0  0  0  0  0  0  0  0  0  0  0  0
    6.4435    0.4782    0.1144 C   0  0  0  0  0  0  0  0  0  0  0  0
    6.3429    1.6266   -0.4947 C   0  0  0  0  0  0  0  0  0  0  0  0
    5.4269    2.6303   -0.1452 N   0  0  0  0  0  0  0  0  0  0  0  0
  1  2  1  0
  2  3  1  0
  3  4  1  0
  4  5  1  0
  5  6  1  1
  6  7  1  0
  5  8  1  0
  8  9  1  6
  8 10  1  0
 10 11  1  1
 10 12  1  0
 12 13  1  0
 13 14  1  1
 14 15  1  0
 15 16  1  0
 16 17  1  6
 16 18  1  0
 18 19  1  0
 19 20  1  0
 20 21  1  0
 21 22  1  0
 22 23  1  1
 22 24  1  0
 24 25  2  3
 25 26  1  0
 13  4  1  0
M  RAD  3   3   2  17   3  20   2
M  END
>  <fragInfo>  (1) 
4 5 8 9 10 11 12 13
1 2
3
6 7
14
15
16 17
18
19
20
21
22 23
24 25 26


>  <torsionInfo>  (1) 
3 4 2 0
5 6 0 3
13 14 0 4
2 3 1 2
14 15 4 5
15 16 5 6
16 18 6 7
18 19 7 8
19 20 8 9
20 21 9 10
21 22 10 11
22 24 11 12


>  <atomInfo>  (1) 
1  -0.3946802OA
2  0.06036665C 
3  0.05359504C 
4  -0.2612034NA
5  0.06661083C 
6  0.06147136C 
7  -0.3946371OA
8  0.12248891C 
9  -0.3860850OA
10 0.18410440C 
11 -0.3657153OA
12 -0.3292314OA
13 0.13783628C 
14 0.08711825C 
15 -0.3713691OA
16 0.08468543C 
17 -0.0011632C 
18 0.07652856C 
19 -0.3451781OA
20 0.21094036C 
21 -0.3257558OA
22 0.12945309C 
23 -0.3025773NA
24 -0.0258100C 
25 -0.0063461C 
26 -0.4047352N 


$$$$
