
     RDKit          3D

 29 29  0  0  0  0  0  0  0  0999 V2000
   -8.5827   -2.1699   -0.2481 C   0  0  0  0  0  0  0  0  0  0  0  0
   -7.2298   -2.1903    0.3836 C   0  0  0  0  0  0  0  0  0  0  0  0
   -7.3414   -2.4839    1.8601 C   0  0  0  0  0  0  0  0  0  0  0  0
   -6.4363   -0.9238    0.1480 C   0  0  0  0  0  0  0  0  0  0  0  0
   -6.2257   -0.6969   -1.3340 C   0  0  0  0  0  0  0  0  0  0  0  0
   -5.4345    0.5635   -1.5922 C   0  0  0  0  0  0  0  0  0  0  0  0
   -4.0700    0.4963   -0.9428 C   0  0  1  0  0  0  0  0  0  0  0  0
   -3.3519    1.7930   -1.2515 C   0  0  0  0  0  0  0  0  0  0  0  0
   -4.2468    0.4072    0.5454 C   0  0  0  0  0  3  0  0  0  0  0  0
   -2.9578    0.3353    1.2963 C   0  0  0  0  0  0  0  0  0  0  0  0
   -2.1378   -0.8868    0.8916 C   0  0  0  0  0  0  0  0  0  0  0  0
   -0.8611   -0.8194    1.7397 C   0  0  2  0  0  0  0  0  0  0  0  0
   -1.3372   -0.8663    3.1969 C   0  0  0  0  0  0  0  0  0  0  0  0
   -0.3153    0.5985    1.5275 C   0  0  0  0  0  3  0  0  0  0  0  0
    0.9560    0.7294    2.3431 C   0  0  0  0  0  0  0  0  0  0  0  0
    1.9291   -0.2710    1.8807 C   0  0  2  0  0  0  0  0  0  0  0  0
    3.2295   -0.3435    2.5107 C   0  0  0  0  0  0  0  0  0  0  0  0
    1.7816   -0.6879    0.5055 C   0  0  0  0  0  0  0  0  0  0  0  0
    1.8963    0.4209   -0.4784 C   0  0  0  0  0  0  0  0  0  0  0  0
    3.2102    1.0946   -0.4033 C   0  0  1  0  0  0  0  0  0  0  0  0
    3.5514    1.6877    0.7747 O   0  0  0  0  0  0  0  0  0  0  0  0
    4.2758    0.1965   -0.9687 C   0  0  2  0  0  0  0  0  0  0  0  0
    5.6473    0.8215   -0.9235 C   0  0  0  0  0  0  0  0  0  0  0  0
    6.6781   -0.2777   -0.7905 C   0  0  2  0  0  0  0  0  0  0  0  0
    7.9321    0.3224   -0.9178 O   0  0  0  0  0  0  0  0  0  0  0  0
    6.5691   -1.2240   -1.8026 O   0  0  0  0  0  0  0  0  0  0  0  0
    5.6195   -0.6122   -3.1196 S   0  0  0  0  0  0  0  0  0  0  0  0
    4.0036   -0.1754   -2.4112 C   0  0  1  0  0  0  0  0  0  0  0  0
    3.2485   -1.3572   -2.4197 F   0  0  0  0  0  0  0  0  0  0  0  0
  1  2  1  0
  2  3  1  0
  2  4  1  0
  4  5  1  0
  5  6  1  0
  6  7  1  0
  7  8  1  1
  7  9  1  0
  9 10  1  0
 10 11  1  0
 11 12  1  0
 12 13  1  1
 12 14  1  0
 14 15  1  0
 15 16  1  0
 16 17  1  6
 16 18  1  0
 18 19  1  0
 19 20  1  0
 20 21  1  1
 20 22  1  0
 22 23  1  6
 23 24  1  0
 24 25  1  6
 24 26  1  0
 26 27  1  0
 27 28  1  0
 28 29  1  1
 28 22  1  0
M  RAD  2   9   2  14   2
M  END
>  <fragInfo>  (1) 
22 23 24 25 26 27 28 29
1 2 3
4
5
6
7 8
9
10
11
12 13
14
15
16 17
18
19
20 21


>  <torsionInfo>  (1) 
20 22 15 0
2 4 1 2
4 5 2 3
5 6 3 4
6 7 4 5
7 9 5 6
9 10 6 7
10 11 7 8
11 12 8 9
12 14 9 10
14 15 10 11
15 16 11 12
16 18 12 13
18 19 13 14
19 20 14 15


>  <atomInfo>  (1) 
1  -0.0627736C 
2  -0.0471324C 
3  -0.0627736C 
4  -0.0509643C 
5  -0.0527983C 
6  -0.0504266C 
7  -0.0411603C 
8  -0.0622342C 
9  -0.0357403C 
10 -0.0496542C 
11 -0.0501520C 
12 -0.0411400C 
13 -0.0622339C 
14 -0.0354871C 
15 -0.0473227C 
16 -0.0439011C 
17 -0.0624975C 
18 -0.0482293C 
19 -0.0263319C 
20 0.06070654C 
21 -0.3926901OA
22 0.03276140C 
23 0.00821003C 
24 0.16777212C 
25 -0.3670363OA
26 -0.2813675OA
27 0.03283542SA
28 0.17632998C 
29 -0.2327330F 


$$$$
