
     RDKit          3D

 23 24  0  0  0  0  0  0  0  0999 V2000
    1.1154   -0.0204   -2.8289 C   0  0  0  0  0  0  0  0  0  0  0  0
    2.0695   -0.2088   -1.6528 C   0  0  1  0  0  0  0  0  0  0  0  0
    2.6188    1.1540   -1.3247 C   0  0  0  0  0  0  0  0  0  0  0  0
    3.3924    1.1469   -0.0220 C   0  0  2  0  0  0  0  0  0  0  0  0
    4.3528    0.1292   -0.1379 O   0  0  0  0  0  0  0  0  0  0  0  0
    2.4161    0.6846    1.0561 C   0  0  2  0  0  0  0  0  0  0  0  0
    3.1625    0.6423    2.2436 O   0  0  0  0  0  0  0  0  0  0  0  0
    2.0662   -0.7428    0.7101 C   0  0  1  0  0  0  0  0  0  0  0  0
    1.5789   -1.4676    1.7734 O   0  0  0  0  0  0  0  0  0  0  0  0
    1.2364   -0.7892   -0.5398 C   0  0  1  0  0  0  0  0  0  0  0  0
   -0.0773   -0.2982   -0.4235 N   0  0  0  0  0  0  0  0  0  0  0  0
   -0.4114    0.4898    0.7210 C   0  0  1  0  0  0  0  0  0  0  0  0
   -1.1385    1.7224    0.2136 C   0  0  0  0  0  0  0  0  0  0  0  0
   -2.1741    1.2074   -0.7862 C   0  0  0  0  0  0  0  0  0  0  0  0
   -2.7693    2.3574   -1.3326 O   0  0  0  0  0  0  0  0  0  0  0  0
   -1.5613    0.5682   -1.8397 O   0  0  0  0  0  0  0  0  0  0  0  0
   -3.1674    0.4569   -0.1923 O   0  0  0  0  0  0  0  0  0  0  0  0
   -2.9760   -0.9225   -0.3281 C   0  0  1  0  0  0  0  0  0  0  0  0
   -2.6684   -1.2768   -1.6356 O   0  0  0  0  0  0  0  0  0  0  0  0
   -1.9641   -1.4547    0.6666 C   0  0  2  0  0  0  0  0  0  0  0  0
   -2.4242   -2.5207    1.4025 O   0  0  0  0  0  0  0  0  0  0  0  0
   -1.4966   -0.2903    1.4791 C   0  0  1  0  0  0  0  0  0  0  0  0
   -1.1806   -0.5673    2.7783 O   0  0  0  0  0  0  0  0  0  0  0  0
  2  1  1  6
  2  3  1  0
  3  4  1  0
  4  5  1  6
  4  6  1  0
  6  7  1  1
  6  8  1  0
  8  9  1  1
  8 10  1  0
 10 11  1  1
 12 11  1  6
 12 13  1  0
 13 14  1  0
 14 15  1  0
 14 16  1  0
 14 17  1  0
 17 18  1  0
 18 19  1  6
 18 20  1  0
 20 21  1  1
 20 22  1  0
 22 23  1  1
 10  2  1  0
 22 12  1  0
M  END
>  <fragInfo>  (1) 
12 13 14 15 16 17 18 19 20 21 22 23
1 2 3 4 5 6 7 8 9 10
11


>  <torsionInfo>  (1) 
11 12 2 0
10 11 1 2


>  <atomInfo>  (1) 
1  -0.0608233C 
2  -0.0236278C 
3  -0.0201755C 
4  0.08280077C 
5  -0.3903155OA
6  0.10722523C 
7  -0.3876533OA
8  0.09792987C 
9  -0.3886791OA
10 0.03843688C 
11 -0.3053464NA
12 0.04359954C 
13 0.04716366C 
14 0.28127564C 
15 -0.3433558OA
16 -0.3433558OA
17 -0.2951682OA
18 0.18883007C 
19 -0.3655819OA
20 0.13215191C 
21 -0.3850339OA
22 0.10043917C 
23 -0.3885801OA


$$$$
