
     RDKit          3D

 29 30  0  0  0  0  0  0  0  0999 V2000
    6.7853    4.3923    1.2306 C   0  0  0  0  0  0  0  0  0  0  0  0
    5.3686    3.8792    1.2054 C   0  0  0  0  0  0  0  0  0  0  0  0
    5.2053    2.6953    2.1290 C   0  0  0  0  0  0  0  0  0  0  0  0
    3.7582    2.2225    2.0601 C   0  0  0  0  0  0  0  0  0  0  0  0
    3.5963    1.0492    2.9743 C   0  0  0  0  0  0  0  0  0  0  0  0
    2.1750    0.5397    2.9444 C   0  0  0  0  0  0  0  0  0  0  0  0
    1.7845    0.1043    1.5467 C   0  0  0  0  0  0  0  0  0  0  0  0
    1.8995    1.2836    0.6089 C   0  0  0  0  0  0  0  0  0  0  0  0
    0.3483   -0.3462    1.5887 C   0  0  0  0  0  0  0  0  0  0  0  0
    2.6640   -1.0014    1.1299 C   0  0  0  0  0  0  0  0  0  0  0  0
    2.1910   -1.9934    0.4182 C   0  0  0  0  0  0  0  0  0  0  0  0
    0.8050   -2.0624    0.0065 C   0  0  0  0  0  0  0  0  0  0  0  0
    0.3118   -3.0529   -0.7098 C   0  0  0  0  0  0  0  0  0  0  0  0
    1.2238   -4.1750   -1.1279 C   0  0  0  0  0  0  0  0  0  0  0  0
   -1.1154   -3.0617   -1.0931 C   0  0  2  0  0  0  0  0  0  0  0  0
   -1.3737   -2.5081   -2.4774 C   0  0  2  0  0  0  0  0  0  0  0  0
   -0.4083   -2.7106   -3.4266 O   0  0  0  0  0  0  0  0  0  0  0  0
   -0.1867   -4.0559   -3.6388 C   0  0  0  0  0  0  0  0  0  0  0  0
   -1.4427   -1.1323   -1.8512 C   0  0  0  0  0  0  0  0  0  0  0  0
   -1.8205   -1.8374   -0.5519 C   0  0  1  0  0  0  0  0  0  0  0  0
   -3.1956   -2.0662   -0.5397 O   0  0  0  0  0  0  0  0  0  0  0  0
   -3.8563   -0.9371   -0.0371 C   0  0  0  0  0  0  0  0  0  0  0  0
   -3.5665    0.2588   -0.9004 C   0  0  0  0  0  0  0  0  0  0  0  0
   -2.9865    1.3204   -0.4129 C   0  0  0  0  0  0  0  0  0  0  0  0
   -2.4786    1.7076    0.9153 C   0  0  0  0  0  0  0  0  0  0  0  0
   -2.5880    2.5431   -0.8978 O   0  0  0  0  0  0  0  0  0  0  0  0
   -2.8759    3.0840    0.3932 C   0  0  1  0  0  0  0  0  0  0  0  0
   -4.6065    3.4923    0.6628 S   0  0  0  0  0  0  0  0  0  0  0  0
   -5.6154    2.3680   -0.3437 C   0  0  0  0  0  0  0  0  0  0  0  0
  1  2  1  0
  2  3  1  0
  3  4  1  0
  4  5  1  0
  5  6  1  0
  6  7  1  0
  7  8  1  0
  7  9  1  0
  7 10  1  0
 10 11  2  3
 11 12  1  0
 12 13  2  3
 13 14  1  0
 15 13  1  1
 15 16  1  0
 16 17  1  6
 17 18  1  0
 16 19  1  0
 19 20  1  0
 20 21  1  6
 21 22  1  0
 22 23  1  0
 23 24  2  3
 24 25  1  0
 24 26  1  0
 26 27  1  0
 27 28  1  6
 28 29  1  0
 20 15  1  0
 27 25  1  0
M  END
>  <fragInfo>  (1) 
23 24 25 26 27
1 2
3
4
5
6
7 8 9
10 11
12 13 14
15 16 19 20
17 18
21
22
28 29


>  <torsionInfo>  (1) 
22 23 12 0
27 28 0 13
2 3 1 2
3 4 2 3
4 5 3 4
5 6 4 5
6 7 5 6
7 10 6 7
11 12 7 8
13 15 8 9
16 17 9 10
20 21 9 11
21 22 11 12


>  <atomInfo>  (1) 
1  -0.0653823C 
2  -0.0561716C 
3  -0.0535681C 
4  -0.0532849C 
5  -0.0524993C 
6  -0.0446302C 
7  -0.0171725C 
8  -0.0563969C 
9  -0.0563969C 
10 -0.0788615C 
11 -0.0657778C 
12 -0.0631644C 
13 -0.0650620C 
14 -0.0431435C 
15 0.03259625C 
16 0.06859780C 
17 -0.3806298OA
18 0.03587013C 
19 0.00114433C 
20 0.06940551C 
21 -0.3732009OA
22 0.06861546C 
23 -0.0207642C 
24 0.10059879C 
25 0.05155847C 
26 -0.4837551OA
27 0.15029377C 
28 -0.1211800SA
29 -0.0148009C 


$$$$
