
     RDKit          3D

 24 24  0  0  0  0  0  0  0  0999 V2000
    3.1624    1.2968    0.7570 C   0  0  0  0  0  0  0  0  0  0  0  0
    2.6265    0.4942   -0.3906 C   0  0  1  0  0  0  0  0  0  0  0  0
    3.7295   -0.1295   -1.2118 C   0  0  0  0  0  0  0  0  0  0  0  0
    3.2735   -1.4865   -1.7026 C   0  0  2  0  0  0  0  0  0  0  0  0
    2.0586   -1.4130   -2.3910 O   0  0  0  0  0  0  0  0  0  0  0  0
    3.0877   -2.4724   -0.5693 C   0  0  2  0  0  0  0  0  0  0  0  0
    2.2767   -3.5140   -1.0262 O   0  0  0  0  0  0  0  0  0  0  0  0
    2.3915   -1.7664    0.5755 C   0  0  1  0  0  0  0  0  0  0  0  0
    3.3051   -1.3498    1.5482 O   0  0  0  0  0  0  0  0  0  0  0  0
    1.6646   -0.5733    0.0132 C   0  0  1  0  0  0  0  0  0  0  0  0
    0.6184   -0.0949    0.8895 N   0  0  0  0  0  0  0  0  0  0  0  0
   -0.1435    0.8945    0.1548 C   0  0  0  0  0  3  0  0  0  0  0  0
   -1.4104    1.2787    0.9040 C   0  0  2  0  0  0  0  0  0  0  0  0
   -2.1802    2.3107    0.1123 C   0  0  0  0  0  0  0  0  0  0  0  0
   -1.3952    3.4262   -0.0613 O   0  0  0  0  0  0  0  0  0  0  0  0
   -2.0577    4.4111   -0.7864 C   0  0  0  0  0  3  0  0  0  0  0  0
   -1.7939    5.6390   -0.1656 O   0  0  0  0  0  0  0  0  0  0  0  0
   -1.1398    1.7043    2.3161 C   0  0  0  0  0  2  0  0  0  0  0  0
   -2.3042    0.0336    0.9312 C   0  0  0  0  0  0  0  0  0  0  0  0
   -2.6025   -0.3580   -0.3683 O   0  0  0  0  0  0  0  0  0  0  0  0
   -3.3984   -1.4619   -0.4461 C   0  0  2  0  0  0  0  0  0  0  0  0
   -4.6388   -1.3060    0.1689 O   0  0  0  0  0  0  0  0  0  0  0  0
   -2.7895   -2.7492   -0.0363 C   0  0  0  0  0  3  0  0  0  0  0  0
   -2.3404   -2.8139    1.2561 O   0  0  0  0  0  0  0  0  0  0  0  0
  2  1  1  1
  2  3  1  0
  3  4  1  0
  4  5  1  1
  4  6  1  0
  6  7  1  6
  6  8  1  0
  8  9  1  1
  8 10  1  0
 10 11  1  1
 11 12  1  0
 12 13  1  0
 13 14  1  0
 14 15  1  0
 15 16  1  0
 16 17  1  0
 13 18  1  1
 13 19  1  0
 19 20  1  0
 20 21  1  0
 21 22  1  1
 21 23  1  0
 23 24  1  0
 10  2  1  0
M  RAD  4  12   2  16   2  18   3  23   2
M  END
>  <fragInfo>  (1) 
1 2 3 4 5 6 7 8 9 10
11
12
13 18
14
15
16 17
19
20
21 22
23 24


>  <torsionInfo>  (1) 
10 11 0 1
11 12 1 2
12 13 2 3
13 14 3 4
13 19 3 7
14 15 4 5
15 16 5 6
19 20 7 8
20 21 8 9
21 23 9 10


>  <atomInfo>  (1) 
1  -0.0608233C 
2  -0.0236281C 
3  -0.0201755C 
4  0.08280077C 
5  -0.3903155OA
6  0.10722523C 
7  -0.3876533OA
8  0.09792952C 
9  -0.3886791OA
10 0.03841485C 
11 -0.3059885NA
12 0.03353866C 
13 0.03762563C 
14 0.05965089C 
15 -0.3473715OA
16 0.20626234C 
17 -0.3639429OA
18 -0.0219464C 
19 0.05955707C 
20 -0.3493265OA
21 0.18311204C 
22 -0.3657413OA
23 0.13538262C 
24 -0.3848893OA


$$$$
