
     RDKit          3D

 36 37  0  0  0  0  0  0  0  0999 V2000
   -2.5023    0.8624    0.8784 C   0  0  0  0  0  0  0  0  0  0  0  0
   -2.6152   -0.6370    0.9084 C   0  0  2  0  0  0  0  0  0  0  0  0
   -2.1263   -1.1385    2.2641 C   0  0  0  0  0  0  0  0  0  0  0  0
   -1.7554   -1.3100   -0.1388 C   0  0  0  0  0  0  0  0  0  0  0  0
   -2.2150   -2.7600   -0.2233 C   0  0  0  0  0  0  0  0  0  0  0  0
   -1.2904   -3.5846   -1.0876 C   0  0  0  0  0  0  0  0  0  0  0  0
   -0.1216   -4.1191   -0.2877 C   0  0  1  0  0  0  0  0  0  0  0  0
   -0.1141   -5.6222   -0.4211 C   0  0  0  0  0  0  0  0  0  0  0  0
    1.1371   -3.5258   -0.8595 C   0  0  0  0  0  3  0  0  0  0  0  0
    2.0451   -2.9754    0.2429 C   0  0  0  0  0  0  0  0  0  0  0  0
    3.4650   -3.2607   -0.1530 C   0  0  0  0  0  3  0  0  0  0  0  0
    4.3117   -2.0192   -0.2234 C   0  0  0  0  0  3  0  0  0  0  0  0
    4.4380   -1.3197    1.1021 C   0  0  1  0  0  0  0  0  0  0  0  0
    5.2139   -2.1142    2.1116 C   0  0  0  0  0  2  0  0  0  0  0  0
    5.1936   -0.0208    0.8624 C   0  0  0  0  0  0  0  0  0  0  0  0
    5.1456    0.3664   -0.5751 C   0  0  0  0  0  0  0  0  0  0  0  0
    6.0194   -0.3995   -1.5098 C   0  0  0  0  0  0  0  0  0  0  0  0
    4.3539    1.3419   -0.9440 C   0  0  0  0  0  0  0  0  0  0  0  0
    3.4747    2.1197   -0.0343 C   0  0  0  0  0  0  0  0  0  0  0  0
    3.7978    3.5896   -0.2442 C   0  0  1  0  0  0  0  0  0  0  0  0
    3.3762    4.0411   -1.4914 O   0  0  0  0  0  0  0  0  0  0  0  0
    3.1283    4.3665    0.8525 C   0  0  0  0  0  0  0  0  0  0  0  0
    1.7353    4.7190    0.4348 C   0  0  0  0  0  3  0  0  0  0  0  0
    0.7446    3.7829    1.0839 C   0  0  0  0  0  0  0  0  0  0  0  0
   -0.5378    4.2302    0.8312 O   0  0  0  0  0  0  0  0  0  0  0  0
   -1.4045    3.1394    0.8728 C   0  0  0  0  0  0  0  0  0  0  0  0
   -1.6393    2.6516   -0.5595 C   0  0  0  0  0  0  0  0  0  0  0  0
   -2.5493    1.4352   -0.5011 C   0  0  2  0  0  0  0  0  0  0  0  0
   -3.9533    1.9154   -0.8173 C   0  0  0  0  0  0  0  0  0  0  0  0
   -4.4305    1.3088   -2.1384 C   0  0  0  0  0  3  0  0  0  0  0  0
   -4.7037   -0.1639   -1.8456 C   0  0  0  0  0  3  0  0  0  0  0  0
   -5.7528   -0.1906   -0.7496 C   0  0  1  0  0  0  0  0  0  0  0  0
   -6.4034   -1.4261   -0.7892 O   0  0  0  0  0  0  0  0  0  0  0  0
   -5.0319   -0.0314    0.5837 C   0  0  0  0  0  0  0  0  0  0  0  0
   -4.0206   -1.1312    0.7376 C   0  0  2  0  0  0  0  0  0  0  0  0
   -4.4127   -2.1202    1.8273 C   0  0  0  0  0  2  0  0  0  0  0  0
  1  2  1  0
  2  3  1  1
  2  4  1  0
  4  5  1  0
  5  6  1  0
  6  7  1  0
  7  8  1  6
  7  9  1  0
  9 10  1  0
 10 11  1  0
 11 12  1  0
 12 13  1  0
 13 14  1  1
 13 15  1  0
 15 16  1  0
 16 17  1  0
 16 18  2  3
 18 19  1  0
 19 20  1  0
 20 21  1  6
 20 22  1  0
 22 23  1  0
 23 24  1  0
 24 25  1  0
 25 26  1  0
 26 27  1  0
 28 27  1  1
 28 29  1  0
 29 30  1  0
 30 31  1  0
 31 32  1  0
 32 33  1  1
 32 34  1  0
 34 35  1  0
 35 36  1  1
 28  1  1  0
 35  2  1  0
M  RAD  8   9   2  11   2  12   2  14   3  23   2  30   2  31   2  36   3
M  END
>  <fragInfo>  (1) 
1 2 3 4 5 6 7 8 9 10 11 12 13 14 15 16 17 18 19 20 21 22 23 24 25 26 27 28 29 30 31 32 33 34 35 36


>  <torsionInfo>  (1) 


>  <atomInfo>  (1) 
1  -0.0446326C 
2  -0.0291069C 
3  -0.0593564C 
4  -0.0475636C 
5  -0.0525127C 
6  -0.0504158C 
7  -0.0411496C 
8  -0.0622340C 
9  -0.0354557C 
10 -0.0464994C 
11 -0.0345902C 
12 -0.0314621C 
13 -0.0308908C 
14 -0.0311654C 
15 -0.0288845C 
16 -0.0769212C 
17 -0.0439227C 
18 -0.0830325C 
19 -0.0085640C 
20 0.05779059C 
21 -0.3927955OA
22 -0.0213023C 
23 -0.0102528C 
24 0.04982528C 
25 -0.3811394OA
26 0.04683269C 
27 -0.0267223C 
28 -0.0384260C 
29 -0.0468354C 
30 -0.0322580C 
31 -0.0065585C 
32 0.05773730C 
33 -0.3928066OA
34 -0.0230557C 
35 -0.0301242C 
36 -0.0311407C 


$$$$
