
     RDKit          3D

 27 26  0  0  0  0  0  0  0  0999 V2000
    4.5672    2.6169    1.3255 C   0  0  0  0  0  0  0  0  0  0  0  0
    4.9652    1.2796    0.6403 C   0  0  0  0  0  0  0  0  0  0  0  0
    5.9802    1.6579   -0.4561 C   0  0  0  0  0  0  0  0  0  0  0  0
    5.6864    0.4305    1.6451 C   0  0  0  0  0  0  0  0  0  0  0  0
    6.1019   -0.8976    1.1397 C   0  0  0  0  0  0  0  0  0  0  0  0
    4.9731   -1.7573    0.7414 C   0  0  0  0  0  0  0  0  0  0  0  0
    4.0920   -1.3178   -0.3615 C   0  0  1  0  0  0  0  0  0  0  0  0
    4.7661   -1.1462   -1.6767 C   0  0  0  0  0  0  0  0  0  0  0  0
    2.8578   -2.1886   -0.4561 C   0  0  0  0  0  3  0  0  0  0  0  0
    2.0459   -2.1180    0.8269 C   0  0  0  0  0  0  0  0  0  0  0  0
    1.6041   -0.6657    1.0437 C   0  0  0  0  0  0  0  0  0  0  0  0
    0.7583   -0.3211   -0.1903 C   0  0  2  0  0  0  0  0  0  0  0  0
    0.2715    1.1121   -0.0678 C   0  0  0  0  0  0  0  0  0  0  0  0
   -0.3856   -1.3170   -0.3100 C   0  0  0  0  0  3  0  0  0  0  0  0
   -1.3550   -1.2242    0.8027 C   0  0  0  0  0  0  0  0  0  0  0  0
   -2.3176   -0.0463    0.7318 C   0  0  1  0  0  0  0  0  0  0  0  0
   -3.1119   -0.1799   -0.4189 N   0  0  0  0  0  0  0  0  0  0  0  0
   -2.6214   -0.1592   -1.7093 C   0  0  0  0  0  0  0  0  0  0  0  0
   -2.1107    1.0902   -2.3090 C   0  0  0  0  0  0  0  0  0  0  0  0
   -3.0999    2.2157   -2.4101 C   0  0  0  0  0  0  0  0  0  0  0  0
   -2.3810    3.3896   -3.0476 C   0  0  0  0  0  0  0  0  0  0  0  0
   -3.1917   -0.1801    1.9638 C   0  0  0  0  0  3  0  0  0  0  0  0
   -4.2205    0.8826    2.1002 C   0  0  0  0  0  3  0  0  0  0  0  0
   -5.2103    0.9340    0.9862 C   0  0  0  0  0  0  0  0  0  0  0  0
   -5.9684   -0.3353    0.8319 C   0  0  0  0  0  0  0  0  0  0  0  0
   -6.9231   -0.4373   -0.1555 O   0  0  0  0  0  0  0  0  0  0  0  0
   -5.7725   -1.3176    1.5668 O   0  0  0  0  0  0  0  0  0  0  0  0
  1  2  1  0
  2  3  1  0
  2  4  1  0
  4  5  1  0
  5  6  1  0
  6  7  1  0
  7  8  1  6
  7  9  1  0
  9 10  1  0
 10 11  1  0
 11 12  1  0
 12 13  1  1
 12 14  1  0
 14 15  1  0
 16 15  1  1
 16 17  1  0
 17 18  1  0
 18 19  1  0
 19 20  1  0
 20 21  1  0
 16 22  1  0
 22 23  1  0
 23 24  1  0
 24 25  1  0
 25 26  1  0
 25 27  2  0
M  RAD  4   9   2  14   2  22   2  23   2
M  END
>  <fragInfo>  (1) 
1 2 3
4
5
6
7 8
9
10
11
12 13
14
15
16
17
18
19
20 21
22
23
24
25 26 27


>  <torsionInfo>  (1) 
2 4 0 1
4 5 1 2
5 6 2 3
6 7 3 4
7 9 4 5
9 10 5 6
10 11 6 7
11 12 7 8
12 14 8 9
14 15 9 10
15 16 10 11
16 17 11 12
16 22 11 16
17 18 12 13
18 19 13 14
19 20 14 15
22 23 16 17
23 24 17 18
24 25 18 19


>  <atomInfo>  (1) 
1  -0.0627736C 
2  -0.0471324C 
3  -0.0627736C 
4  -0.0509643C 
5  -0.0527983C 
6  -0.0504266C 
7  -0.0411603C 
8  -0.0622342C 
9  -0.0357403C 
10 -0.0496542C 
11 -0.0501512C 
12 -0.0410910C 
13 -0.0622330C 
14 -0.0342028C 
15 -0.0340904C 
16 0.01043655C 
17 -0.3136728NA
18 -0.0046300C 
19 -0.0409225C 
20 -0.0549627C 
21 -0.0653353C 
22 -0.0176546C 
23 -0.0225422C 
24 0.04877394C 
25 0.30314511C 
26 -0.4812225OA
27 -0.2524731OA


$$$$
