
     RDKit          2D

 79 80  0  0  0  0  0  0  0  0999 V2000
   14.1868   10.0886    0.0000 O   0  0  0  0  0  0  0  0  0  0  0  0
   13.7734    8.6467    0.0000 C   0  0  0  0  0  0  0  0  0  0  0  0
   14.8154    7.5677    0.0000 C   0  0  0  0  0  3  0  0  0  0  0  0
   14.4019    6.1258    0.0000 N   0  0  0  0  0  0  0  0  0  0  0  0
   15.4439    5.0468    0.0000 C   0  0  0  0  0  0  0  0  0  0  0  0
   16.8993    5.4097    0.0000 C   0  0  0  0  0  0  0  0  0  0  0  0
   17.3128    6.8516    0.0000 O   0  0  0  0  0  0  0  0  0  0  0  0
   15.0304    3.6049    0.0000 C   0  0  0  0  0  0  0  0  0  0  0  0
   16.0724    2.5259    0.0000 O   0  0  0  0  0  0  0  0  0  0  0  0
   13.5750    3.2420    0.0000 C   0  0  0  0  0  0  0  0  0  0  0  0
   12.5330    4.3210    0.0000 O   0  0  0  0  0  0  0  0  0  0  0  0
   13.1615    1.8001    0.0000 C   0  0  0  0  0  3  0  0  0  0  0  0
   11.7061    1.4372    0.0000 C   0  0  0  0  0  0  0  0  0  0  0  0
   10.6641    2.5163    0.0000 Cl  0  0  0  0  0  0  0  0  0  0  0  0
   11.2926   -0.0046    0.0000 C   0  0  0  0  0  0  0  0  0  0  0  0
    9.8372   -0.3675    0.0000 O   0  0  0  0  0  0  0  0  0  0  0  0
    9.4237   -1.8094    0.0000 C   0  0  0  0  0  0  0  0  0  0  0  0
    9.7866   -3.2649    0.0000 O   0  0  0  0  0  0  0  0  0  0  0  0
    8.3447   -2.8514    0.0000 C   0  0  0  0  0  0  0  0  0  0  0  0
    7.6872   -4.1996    0.0000 O   0  0  0  0  0  0  0  0  0  0  0  0
    7.1312   -1.9697    0.0000 O   0  0  0  0  0  0  0  0  0  0  0  0
    5.7609   -2.5798    0.0000 N   0  0  0  0  0  0  0  0  0  0  0  0
    4.5474   -1.6982    0.0000 C   0  0  0  0  0  0  0  0  0  0  0  0
    4.7042   -0.2064    0.0000 O   0  0  0  0  0  0  0  0  0  0  0  0
    3.1771   -2.3083    0.0000 C   0  0  0  0  0  0  0  0  0  0  0  0
    3.0203   -3.8000    0.0000 O   0  0  0  0  0  0  0  0  0  0  0  0
    1.9635   -1.4266    0.0000 C   0  0  0  0  0  0  0  0  0  0  0  0
    2.4271    0.0000    0.0000 O   0  0  0  0  0  0  0  0  0  0  0  0
    1.9635    1.4266    0.0000 C   0  0  0  0  0  0  0  0  0  0  0  0
    0.7500    2.3083    0.0000 C   0  0  0  0  0  0  0  0  0  0  0  0
    1.2135    3.7348    0.0000 O   0  0  0  0  0  0  0  0  0  0  0  0
   -0.7500    2.3083    0.0000 C   0  0  0  0  0  3  0  0  0  0  0  0
   -1.9635    1.4266    0.0000 O   0  0  0  0  0  0  0  0  0  0  0  0
   -2.4271    0.0000    0.0000 O   0  0  0  0  0  0  0  0  0  0  0  0
   -1.9635   -1.4266    0.0000 O   0  0  0  0  0  0  0  0  0  0  0  0
   -0.7500   -2.3083    0.0000 C   0  0  0  0  0  3  0  0  0  0  0  0
    0.7500   -2.3083    0.0000 C   0  0  0  0  0  0  0  0  0  0  0  0
    1.2135   -3.7348    0.0000 O   0  0  0  0  0  0  0  0  0  0  0  0
    0.2098   -4.8496    0.0000 N   0  0  0  0  0  0  0  0  0  0  0  0
    0.6734   -6.2761    0.0000 C   0  0  0  0  0  0  0  0  0  0  0  0
    2.1406   -6.5880    0.0000 O   0  0  0  0  0  0  0  0  0  0  0  0
   -0.3303   -7.3909    0.0000 C   0  0  0  0  0  0  0  0  0  0  0  0
    0.1332   -8.8175    0.0000 C   0  0  0  0  0  0  0  0  0  0  0  0
   -0.8705   -9.9322    0.0000 C   0  0  0  0  0  0  0  0  0  0  0  0
   -0.4070  -11.3588    0.0000 C   0  0  0  0  0  0  0  0  0  0  0  0
   -1.4107  -12.4735    0.0000 C   0  0  0  0  0  0  0  0  0  0  0  0
    1.0602  -11.6706    0.0000 O   0  0  0  0  0  0  0  0  0  0  0  0
    1.5238  -13.0972    0.0000 C   0  0  0  0  0  3  0  0  0  0  0  0
    2.9910  -13.4091    0.0000 C   0  0  0  0  0  0  0  0  0  0  0  0
    1.6004   -9.1293    0.0000 C   0  0  0  0  0  0  0  0  0  0  0  0
    2.6041   -8.0146    0.0000 O   0  0  0  0  0  0  0  0  0  0  0  0
    2.0639  -10.5559    0.0000 C   0  0  0  0  0  0  0  0  0  0  0  0
    3.5312  -10.8678    0.0000 C   0  0  0  0  0  0  0  0  0  0  0  0
    4.5348   -9.7531    0.0000 O   0  0  0  0  0  0  0  0  0  0  0  0
    3.9947  -12.2944    0.0000 C   0  0  0  0  0  0  0  0  0  0  0  0
    5.4619  -12.6062    0.0000 O   0  0  0  0  0  0  0  0  0  0  0  0
    5.9254  -14.0328    0.0000 N   0  0  0  0  0  0  0  0  0  0  0  0
    7.3926  -14.3447    0.0000 C   0  0  0  0  0  0  0  0  0  0  0  0
    8.3963  -13.2300    0.0000 C   0  0  0  0  0  0  0  0  0  0  0  0
    7.2816  -12.2263    0.0000 N   0  0  0  0  0  0  0  0  0  0  0  0
    9.4000  -12.1152    0.0000 C   0  0  0  0  0  0  0  0  0  0  0  0
    9.5111  -14.2337    0.0000 O   0  0  0  0  0  0  0  0  0  0  0  0
   10.9376  -13.7701    0.0000 O   0  0  0  0  0  0  0  0  0  0  0  0
   12.0524  -14.7738    0.0000 N   0  0  0  0  0  0  0  0  0  0  0  0
   13.4789  -14.3103    0.0000 C   0  0  0  0  0  3  0  0  0  0  0  0
   14.5937  -15.3140    0.0000 C   0  0  0  0  0  0  0  0  0  0  0  0
    7.8562  -15.7713    0.0000 C   0  0  0  0  0  0  0  0  0  0  0  0
    9.3234  -16.0831    0.0000 O   0  0  0  0  0  0  0  0  0  0  0  0
    9.7869  -17.5097    0.0000 N   0  0  0  0  0  3  0  0  0  0  0  0
    8.7832  -18.6244    0.0000 N   0  0  0  0  0  0  0  0  0  0  0  0
   11.2541  -17.8216    0.0000 C   0  0  0  0  0  0  0  0  0  0  0  0
   11.7177  -19.2482    0.0000 C   0  0  0  0  0  0  0  0  0  0  0  0
   13.1849  -19.5600    0.0000 O   0  0  0  0  0  0  0  0  0  0  0  0
   13.6484  -20.9866    0.0000 C   0  0  0  0  0  0  0  0  0  0  0  0
   12.6447  -22.1013    0.0000 O   0  0  0  0  0  0  0  0  0  0  0  0
   15.1156  -21.2985    0.0000 C   0  0  0  0  0  0  0  0  0  0  0  0
   15.5792  -22.7251    0.0000 C   0  0  0  0  0  0  0  0  0  0  0  0
   17.0464  -23.0369    0.0000 O   0  0  0  0  0  0  0  0  0  0  0  0
   17.5099  -24.4635    0.0000 C   0  0  0  0  0  2  0  0  0  0  0  0
  1  2  1  0
  2  3  1  0
  3  4  1  0
  4  5  1  0
  5  6  1  6
  6  7  1  0
  5  8  1  0
  8  9  1  1
  8 10  1  0
 10 11  1  1
 10 12  1  0
 12 13  1  0
 13 14  1  6
 13 15  1  0
 15 16  1  0
 17 16  1  1
 17 18  1  0
 17 19  1  0
 19 20  1  0
 19 21  1  0
 21 22  1  0
 22 23  1  0
 23 24  1  1
 23 25  1  0
 25 26  1  6
 25 27  1  0
 27 28  1  6
 28 29  1  0
 29 30  1  0
 30 31  1  1
 30 32  1  0
 32 33  1  0
 33 34  1  0
 34 35  1  0
 35 36  1  0
 36 37  1  0
 37 38  1  6
 38 39  1  0
 39 40  1  0
 40 41  1  6
 40 42  1  0
 43 42  1  1
 43 44  1  0
 44 45  1  0
 45 46  1  1
 45 47  1  0
 47 48  1  0
 48 49  1  0
 43 50  1  0
 50 51  1  6
 50 52  1  0
 52 53  1  0
 53 54  1  1
 53 55  1  0
 55 56  1  0
 56 57  1  0
 57 58  1  0
 58 59  1  0
 59 60  1  0
 59 61  1  0
 59 62  1  0
 62 63  1  0
 63 64  1  0
 64 65  1  0
 65 66  1  0
 58 67  1  6
 67 68  1  0
 68 69  1  0
 69 70  1  0
 69 71  1  0
 71 72  1  0
 72 73  1  0
 73 74  1  0
 74 75  1  6
 74 76  1  0
 76 77  1  0
 77 78  1  0
 78 79  1  0
 19 18  1  0
 37 27  1  0
M  RAD  8   3   2  12   2  32   2  36   2  48   2  65   2  69   2  79   3
M  CHG  1  69   1
M  END
>  <fragInfo>  (1) 
27 28 29 30 31 32 33 34 35 36 37
1 2
3
4
5
6 7
8 9
10 11
12
13 14
15
16
17 18 19 20
21
22
23 24
25 26
38
39
40 41
42
43
44
45 46
47
48 49
50 51
52
53 54
55
56
57
58
59 60 61
62
63
64
65 66
67
68
69 70
71
72
73
74 75
76
77
78 79


>  <torsionInfo>  (1) 
25 27 16 0
37 38 0 17
2 3 1 2
3 4 2 3
4 5 3 4
5 6 4 5
5 8 4 6
8 10 6 7
10 12 7 8
12 13 8 9
13 15 9 10
15 16 10 11
16 17 11 12
19 21 12 13
21 22 13 14
22 23 14 15
23 25 15 16
38 39 17 18
39 40 18 19
40 42 19 20
42 43 20 21
43 44 21 22
43 50 21 26
44 45 22 23
45 47 23 24
47 48 24 25
50 52 26 27
52 53 27 28
53 55 28 29
55 56 29 30
56 57 30 31
57 58 31 32
58 59 32 33
58 67 32 38
59 62 33 34
62 63 34 35
63 64 35 36
64 65 36 37
67 68 38 39
68 69 39 40
69 71 40 41
71 72 41 42
72 73 42 43
73 74 43 44
74 76 44 45
76 77 45 46
77 78 46 47


>  <atomInfo>  (1) 
1  -0.3946905OA
2  0.06004187C 
3  0.04808498C 
4  -0.3028773NA
5  0.05917690C 
6  0.06106342C 
7  -0.3946489OA
8  0.09770312C 
9  -0.3886913OA
10 0.08621670C 
11 -0.3900051OA
12 0.01294762C 
13 0.06286308C 
14 -0.1200634Cl
15 0.06686197C 
16 -0.3439476OA
17 0.24744900C 
18 -0.2837428OA
19 0.35314124C 
20 -0.3380636OA
21 -0.2326649OA
22 -0.1654098NA
23 0.15519484C 
24 -0.3736213OA
25 0.12404553C 
26 -0.3860625OA
27 0.11837930C 
28 -0.3696465OA
29 0.07601777C 
30 0.10956605C 
31 -0.3877563OA
32 0.15606570C 
33 -0.1969441OA
34 -0.0671397OA
35 -0.1968299OA
36 0.15887444C 
37 0.14004638C 
38 -0.2901743OA
39 -0.1735797NA
40 0.12699236C 
41 -0.3764910OA
42 -0.0059921C 
43 -0.0088710C 
44 -0.0215271C 
45 0.05551424C 
46 -0.0386499C 
47 -0.3728695OA
48 0.08091473C 
49 -0.0361012C 
50 0.05958948C 
51 -0.3927339OA
52 0.00184115C 
53 0.08180170C 
54 -0.3905428OA
55 0.09421974C 
56 -0.2985717OA
57 -0.1923438NA
58 0.10712389C 
59 0.17066289C 
60 -0.2995584NA
61 -0.0172371C 
62 -0.1942142OA
63 -0.1408968OA
64 -0.1651445NA
65 0.04980695C 
66 -0.0457468C 
67 0.13766877C 
68 -0.1232988OA
69 0.08278872N 
70 -0.0938978NA
71 0.20741638C 
72 0.10960700C 
73 -0.3465042OA
74 0.15653776C 
75 -0.3678984OA
76 0.02171864C 
77 0.05203922C 
78 -0.3723777OA
79 0.11503330C 


$$$$
