
     RDKit          3D

 27 29  0  0  0  0  0  0  0  0999 V2000
    5.1239   -0.6525    1.7194 O   0  0  0  0  0  0  0  0  0  0  0  0
    4.2602   -0.6834    0.7741 C   0  0  0  0  0  0  0  0  0  0  0  0
    4.7949   -0.8631   -0.5426 N   0  0  0  0  0  0  0  0  0  0  0  0
    4.2120   -1.7788   -1.5216 C   0  0  0  0  0  0  0  0  0  0  0  0
    2.7364   -1.7553   -1.4440 C   0  0  0  0  0  0  0  0  0  0  0  0
    2.0908   -2.6474   -0.6488 C   0  0  0  0  0  0  0  0  0  0  0  0
    0.7238   -2.5829   -0.5328 C   0  0  0  0  0  0  0  0  0  0  0  0
    0.0101   -1.6165   -1.2208 C   0  0  0  0  0  0  0  0  0  0  0  0
   -1.3446   -1.4829   -1.1529 O   0  0  0  0  0  0  0  0  0  0  0  0
    0.6801   -0.7052   -2.0386 C   0  0  0  0  0  0  0  0  0  0  0  0
    2.0553   -0.7969   -2.1341 C   0  0  0  0  0  0  0  0  0  0  0  0
    2.8723   -0.5424    1.0907 C   0  0  0  0  0  0  0  0  0  0  0  0
    2.0610    0.4499    0.9061 C   0  0  0  0  0  0  0  0  0  0  0  0
    0.3789    0.2417    1.4404 S   0  0  1  0  0  0  0  0  0  0  0  0
    0.3839    1.0286    2.8606 C   0  0  0  0  0  0  0  0  0  0  0  0
    0.4547    2.4953    2.7190 C   0  0  0  0  0  0  0  0  0  0  0  0
    0.5584    3.0105    1.5253 C   0  0  0  0  0  0  0  0  0  0  0  0
   -0.2148    2.5793    0.5550 C   0  0  0  0  0  0  0  0  0  0  0  0
   -0.8111    3.7930   -0.7884 Br  0  0  0  0  0  0  0  0  0  0  0  0
   -0.6062    1.1433    0.5469 C   0  0  0  0  0  0  0  0  0  0  0  0
   -1.7312    0.6831   -0.1576 C   0  0  0  0  0  0  0  0  0  0  0  0
   -2.0697   -0.3474   -0.8440 C   0  0  0  0  0  0  0  0  0  0  0  0
   -3.7524   -0.3690   -1.5396 S   0  0  0  0  0  0  0  0  0  0  0  0
   -4.6693    1.0759   -1.1449 C   0  0  0  0  0  0  0  0  0  0  0  0
   -5.7602    0.9938   -0.4033 C   0  0  0  0  0  0  0  0  0  0  0  0
   -6.2021   -0.3349    0.0926 C   0  0  0  0  0  0  0  0  0  0  0  0
   -6.2353   -0.3358    1.8840 Cl  0  0  0  0  0  0  0  0  0  0  0  0
  1  2  2  0
  2  3  1  0
  3  4  1  0
  4  5  1  0
  5  6  2  0
  6  7  1  0
  7  8  2  0
  8  9  1  0
  8 10  1  0
 10 11  2  0
  2 12  1  0
 12 13  2  3
 14 13  1  6
 14 15  2  0
 15 16  1  0
 16 17  2  0
 17 18  2  0
 18 19  1  0
 18 20  1  0
 20 21  1  0
 21 22  2  3
 22 23  1  0
 23 24  1  0
 24 25  2  3
 25 26  1  0
 26 27  1  0
 11  5  1  0
 22  9  1  0
 14 20  2  0
M  END
>  <fragInfo>  (1) 
1 2 3 4 5 6 7 8 9 10 11 12 13 14 15 16 17 18 19 20 21 22
23
24 25
26 27


>  <torsionInfo>  (1) 
22 23 0 1
23 24 1 2
25 26 2 3


>  <atomInfo>  (1) 
1  -0.2699837OA
2  0.24421910C 
3  -0.3484613N 
4  0.04304134C 
5  -0.0285198A 
6  -0.0535530A 
7  -0.0189396A 
8  0.12776965A 
9  -0.4501557OA
10 -0.0189396A 
11 -0.0535530A 
12 0.00807134C 
13 -0.0361687C 
14 -0.1835159S 
15 -0.0338678C 
16 -0.0135577C 
17 -0.1036707C 
18 0.07193520C 
19 -0.0403974Br
20 0.02095460C 
21 0.00211127C 
22 0.16562708C 
23 -0.0602922SA
24 -0.0239850C 
25 -0.0630133C 
26 0.04117445C 
27 -0.1221778Cl


$$$$
