
     RDKit          2D

 69 72  0  0  0  0  0  0  0  0999 V2000
   12.6957   -1.2175    0.0000 C   0  0  0  0  0  0  0  0  0  0  0  0
   11.5466   -2.1817    0.0000 C   0  0  0  0  0  0  0  0  0  0  0  0
   11.8071   -3.6589    0.0000 C   0  0  0  0  0  0  0  0  0  0  0  0
   10.6580   -4.6231    0.0000 C   0  0  0  0  0  0  0  0  0  0  0  0
   10.9185   -6.1003    0.0000 O   0  0  0  0  0  0  0  0  0  0  0  0
    9.2485   -4.1100    0.0000 C   0  0  0  0  0  0  0  0  0  0  0  0
    8.0994   -5.0742    0.0000 O   0  0  0  0  0  0  0  0  0  0  0  0
    8.9880   -2.6328    0.0000 C   0  0  0  0  0  0  0  0  0  0  0  0
    7.5785   -2.1198    0.0000 O   0  0  0  0  0  0  0  0  0  0  0  0
   10.1371   -1.6686    0.0000 C   0  0  0  0  0  0  0  0  0  0  0  0
    9.8766   -0.1914    0.0000 N   0  0  0  0  0  0  0  0  0  0  0  0
    8.4670    0.3216    0.0000 C   0  0  0  0  0  3  0  0  0  0  0  0
    8.2066    1.7988    0.0000 C   0  0  0  0  0  0  0  0  0  0  0  0
    6.7970    2.3118    0.0000 C   0  0  0  0  0  0  0  0  0  0  0  0
    6.2840    0.9023    0.0000 O   0  0  0  0  0  0  0  0  0  0  0  0
    7.3101    3.7214    0.0000 O   0  0  0  0  0  0  0  0  0  0  0  0
    5.3875    2.8249    0.0000 C   0  0  0  0  0  0  0  0  0  0  0  0
    4.2384    1.8607    0.0000 C   0  0  0  0  0  0  0  0  0  0  0  0
    4.4989    0.3835    0.0000 O   0  0  0  0  0  0  0  0  0  0  0  0
    2.8289    2.3737    0.0000 C   0  0  0  0  0  0  0  0  0  0  0  0
    2.5684    3.8509    0.0000 O   0  0  0  0  0  0  0  0  0  0  0  0
    1.6798    1.4095    0.0000 C   0  0  0  0  0  0  0  0  0  0  0  0
    2.1929    0.0000    0.0000 C   0  0  0  0  0  0  0  0  0  0  0  0
    1.6798   -1.4095    0.0000 C   0  0  0  0  0  3  0  0  0  0  0  0
    0.3808   -2.1595    0.0000 O   0  0  0  0  0  0  0  0  0  0  0  0
   -1.0964   -1.8991    0.0000 N   0  0  0  0  0  0  0  0  0  0  0  0
   -2.0606   -0.7500    0.0000 N   0  0  0  0  0  0  0  0  0  0  0  0
   -3.2334   -1.6852    0.0000 C   0  0  0  0  0  3  0  0  0  0  0  0
   -4.6957   -1.3515    0.0000 C   0  0  0  0  0  0  0  0  0  0  0  0
   -5.6310   -2.5242    0.0000 O   0  0  0  0  0  0  0  0  0  0  0  0
   -5.3466    0.0000    0.0000 O   0  0  0  0  0  0  0  0  0  0  0  0
   -4.6957    1.3515    0.0000 C   0  0  0  0  0  0  0  0  0  0  0  0
   -3.2334    1.6852    0.0000 C   0  0  0  0  0  0  0  0  0  0  0  0
   -2.8996    3.1476    0.0000 O   0  0  0  0  0  0  0  0  0  0  0  0
   -2.0606    0.7500    0.0000 C   0  0  0  0  0  0  0  0  0  0  0  0
   -1.0964    1.8991    0.0000 C   0  0  0  0  0  0  0  0  0  0  0  0
    0.3808    2.1595    0.0000 C   0  0  0  0  0  0  0  0  0  0  0  0
   -0.2924    3.5000    0.0000 C   0  0  0  0  0  2  0  0  0  0  0  0
    1.4718    3.1889    0.0000 C   0  0  0  0  0  0  0  0  0  0  0  0
    1.1259    4.6485    0.0000 C   0  0  0  0  0  0  0  0  0  0  0  0
    2.2170    5.6778    0.0000 O   0  0  0  0  0  0  0  0  0  0  0  0
   -0.3111    5.0787    0.0000 C   0  0  0  0  0  3  0  0  0  0  0  0
   -0.6570    6.5382    0.0000 C   0  0  0  0  0  0  0  0  0  0  0  0
    0.4341    7.5676    0.0000 C   0  0  0  0  0  0  0  0  0  0  0  0
    1.8711    7.1374    0.0000 C   0  0  0  0  0  0  0  0  0  0  0  0
    2.9621    8.1668    0.0000 C   0  0  0  0  0  0  0  0  0  0  0  0
    4.3991    7.7366    0.0000 O   0  0  0  0  0  0  0  0  0  0  0  0
    5.4902    8.7659    0.0000 N   0  0  0  0  0  0  0  0  0  0  0  0
    6.9271    8.3357    0.0000 C   0  0  0  0  0  0  0  0  0  0  0  0
    7.2731    6.8761    0.0000 O   0  0  0  0  0  0  0  0  0  0  0  0
    8.0182    9.3651    0.0000 C   0  0  0  0  0  3  0  0  0  0  0  0
    9.4552    8.9349    0.0000 C   0  0  0  0  0  0  0  0  0  0  0  0
   10.5463    9.9642    0.0000 C   0  0  0  0  0  0  0  0  0  0  0  0
   11.9832    9.5340    0.0000 C   0  0  0  0  0  0  0  0  0  0  0  0
   12.3292    8.0745    0.0000 O   0  0  0  0  0  0  0  0  0  0  0  0
   13.0743   10.5634    0.0000 C   0  0  0  0  0  3  0  0  0  0  0  0
   14.5113   10.1332    0.0000 C   0  0  0  0  0  0  0  0  0  0  0  0
   14.8572    8.6736    0.0000 O   0  0  0  0  0  0  0  0  0  0  0  0
   15.6023   11.1625    0.0000 C   0  0  0  0  0  0  0  0  0  0  0  0
   17.0393   10.7323    0.0000 C   0  0  0  0  0  0  0  0  0  0  0  0
   17.3853    9.2728    0.0000 N   0  0  0  0  0  0  0  0  0  0  0  0
   18.1304   11.7617    0.0000 C   0  0  0  0  0  3  0  0  0  0  0  0
   19.5674   11.3315    0.0000 C   0  0  0  0  0  0  0  0  0  0  0  0
   20.6584   12.3609    0.0000 C   0  0  0  0  0  0  0  0  0  0  0  0
   22.0954   11.9307    0.0000 C   0  0  0  0  0  0  0  0  0  0  0  0
   23.1865   12.9600    0.0000 O   0  0  0  0  0  0  0  0  0  0  0  0
   22.4413   10.4711    0.0000 O   0  0  0  0  0  0  0  0  0  0  0  0
   23.8783   10.0409    0.0000 C   0  0  0  0  0  0  0  0  0  0  0  0
   24.2242    8.5813    0.0000 F   0  0  0  0  0  0  0  0  0  0  0  0
  2  1  1  1
  2  3  1  0
  3  4  1  0
  4  5  1  6
  4  6  1  0
  6  7  1  6
  6  8  1  0
  8  9  1  1
  8 10  1  0
 10 11  1  1
 11 12  1  0
 12 13  1  0
 13 14  1  0
 14 15  1  0
 14 16  1  0
 14 17  1  0
 17 18  1  0
 18 19  1  1
 18 20  1  0
 20 21  1  1
 20 22  1  0
 22 23  1  1
 23 24  1  0
 24 25  1  0
 25 26  1  0
 26 27  1  0
 27 28  1  0
 28 29  1  0
 29 30  1  6
 29 31  1  0
 31 32  1  0
 32 33  1  0
 33 34  1  6
 33 35  1  0
 35 36  1  1
 36 37  1  0
 37 38  1  0
 37 39  1  0
 39 40  1  0
 40 41  1  0
 40 42  1  0
 42 43  1  0
 43 44  1  0
 44 45  1  0
 45 46  1  1
 46 47  1  0
 47 48  1  0
 48 49  1  0
 49 50  1  1
 49 51  1  0
 51 52  1  0
 52 53  1  0
 53 54  1  0
 54 55  1  6
 54 56  1  0
 56 57  1  0
 57 58  1  0
 57 59  1  0
 59 60  1  0
 60 61  1  1
 60 62  1  0
 62 63  1  0
 63 64  1  0
 64 65  1  0
 65 66  1  6
 65 67  1  0
 67 68  1  0
 68 69  1  0
 10  2  1  0
 37 22  1  0
 35 27  1  0
 45 41  1  0
M  RAD  8  12   2  24   2  28   2  38   3  42   2  51   2  56   2  62   2
M  END
>  <fragInfo>  (1) 
22 23 24 25 26 27 28 29 30 31 32 33 34 35 36 37 38
1 2 3 4 5 6 7 8 9 10
11
12
13
14 15 16
17
18 19
20 21
39
40 41 42 43 44 45
46
47
48
49 50
51
52
53
54 55
56
57 58
59
60 61
62
63
64
65 66
67
68 69


>  <torsionInfo>  (1) 
20 22 8 0
37 39 0 9
10 11 1 2
11 12 2 3
12 13 3 4
13 14 4 5
14 17 5 6
17 18 6 7
18 20 7 8
39 40 9 10
45 46 10 11
46 47 11 12
47 48 12 13
48 49 13 14
49 51 14 15
51 52 15 16
52 53 16 17
53 54 17 18
54 56 18 19
56 57 19 20
57 59 20 21
59 60 21 22
60 62 22 23
62 63 23 24
63 64 24 25
64 65 25 26
65 67 26 27
67 68 27 28


>  <atomInfo>  (1) 
1  -0.0608233C 
2  -0.0236285C 
3  -0.0201755C 
4  0.08280077C 
5  -0.3903155OA
6  0.10722522C 
7  -0.3876533OA
8  0.09792916C 
9  -0.3886791OA
10 0.03839284C 
11 -0.3065523NA
12 0.02777618C 
13 0.01801623C 
14 0.16610399C 
15 -0.3654578OA
16 -0.3654578OA
17 0.02969818C 
18 0.08527488C 
19 -0.3902099OA
20 0.08351888C 
21 -0.3901170OA
22 -0.0039565C 
23 -0.0160220C 
24 0.10919909C 
25 -0.2806515OA
26 -0.1331485NA
27 -0.2052769NA
28 0.09962633C 
29 0.17307410C 
30 -0.3664922OA
31 -0.3483122OA
32 0.07741114C 
33 0.09443107C 
34 -0.3890212OA
35 0.05590230C 
36 -0.0269764C 
37 -0.0167267C 
38 -0.0278626C 
39 -0.0200262C 
40 0.06169456C 
41 -0.3721890OA
42 -0.0095448C 
43 -0.0450492C 
44 -0.0239835C 
45 0.08321914C 
46 0.09451349C 
47 -0.2965925OA
48 -0.1737328NA
49 0.12981597C 
50 -0.3761935OA
51 0.00705330C 
52 -0.0436982C 
53 -0.0261947C 
54 0.05973777C 
55 -0.3927246OA
56 0.01864286C 
57 0.06120757C 
58 -0.3926627OA
59 -0.0110727C 
60 0.00950760C 
61 -0.3273309NA
62 -0.0215874C 
63 -0.0438167C 
64 -0.0014022C 
65 0.15724887C 
66 -0.3678696OA
67 -0.3218931OA
68 0.19084160C 
69 -0.2198169F 


$$$$
