
     RDKit          3D

 24 24  0  0  0  0  0  0  0  0999 V2000
    6.1092    0.8430   -1.4586 C   0  0  0  0  0  0  0  0  0  0  0  0
    4.9855    1.4973   -0.7182 C   0  0  0  0  0  0  0  0  0  0  0  0
    5.5278    2.7224   -0.0002 C   0  0  0  0  0  0  0  0  0  0  0  0
    4.4430    0.5518    0.3178 C   0  0  0  0  0  0  0  0  0  0  0  0
    3.3000    1.2807    1.0368 C   0  0  0  0  0  0  0  0  0  0  0  0
    2.2801    1.6052   -0.0497 C   0  0  0  0  0  0  0  0  0  0  0  0
    1.8347    0.3148   -0.6553 C   0  0  1  0  0  0  0  0  0  0  0  0
    2.9258   -0.4891   -1.2792 C   0  0  0  0  0  0  0  0  0  0  0  0
    0.9911   -0.4302    0.3228 C   0  0  0  0  0  3  0  0  0  0  0  0
    0.4907   -1.7557   -0.2019 C   0  0  1  0  0  0  0  0  0  0  0  0
   -0.3303   -2.3845    0.8703 C   0  0  0  0  0  0  0  0  0  0  0  0
   -1.2387   -1.9555    1.7235 C   0  0  0  0  0  0  0  0  0  0  0  0
   -1.7559   -3.0455    2.6042 C   0  0  0  0  0  0  0  0  0  0  0  0
   -1.8623   -0.6246    2.0023 C   0  0  0  0  0  0  0  0  0  0  0  0
   -2.8621   -0.3281    0.9172 C   0  0  2  0  0  0  0  0  0  0  0  0
   -2.8233    1.1458    0.5409 C   0  0  0  0  0  0  0  0  0  0  0  0
   -3.8661    1.3359   -0.5572 C   0  0  0  0  0  0  0  0  0  0  0  0
   -3.9079    2.7416   -0.9951 C   0  0  0  0  0  0  0  0  0  0  0  0
   -5.0270    3.4615   -0.8885 C   0  0  0  0  0  0  0  0  0  0  0  0
   -4.1220   -0.6222    1.3908 O   0  0  0  0  0  0  0  0  0  0  0  0
   -2.5198   -1.1633   -0.3205 C   0  0  0  0  0  3  0  0  0  0  0  0
   -1.3994   -0.4915   -1.0870 C   0  0  0  0  0  3  0  0  0  0  0  0
   -0.3097   -1.4759   -1.4506 C   0  0  2  0  0  0  0  0  0  0  0  0
   -0.8631   -2.7339   -2.0646 C   0  0  0  0  0  0  0  0  0  0  0  0
  1  2  1  0
  2  3  1  0
  2  4  1  0
  4  5  1  0
  5  6  1  0
  6  7  1  0
  7  8  1  1
  7  9  1  0
 10  9  1  1
 10 11  1  0
 11 12  2  3
 12 13  1  0
 12 14  1  0
 14 15  1  0
 15 16  1  0
 16 17  1  0
 17 18  1  0
 18 19  2  0
 15 20  1  1
 15 21  1  0
 21 22  1  0
 22 23  1  0
 23 24  1  1
 23 10  1  0
M  RAD  3   9   2  21   2  22   2
M  END
>  <fragInfo>  (1) 
10 11 12 13 14 15 20 21 22 23 24
1 2 3
4
5
6
7 8
9
16
17
18 19


>  <torsionInfo>  (1) 
9 10 6 0
15 16 0 7
2 4 1 2
4 5 2 3
5 6 3 4
6 7 4 5
7 9 5 6
16 17 7 8
17 18 8 9


>  <atomInfo>  (1) 
1  -0.0627736C 
2  -0.0471324C 
3  -0.0627736C 
4  -0.0509643C 
5  -0.0527979C 
6  -0.0504046C 
7  -0.0405663C 
8  -0.0622123C 
9  -0.0285934C 
10 -0.0168443C 
11 -0.0818097C 
12 -0.0741500C 
13 -0.0438146C 
14 -0.0029069C 
15 0.07217730C 
16 -0.0200727C 
17 -0.0325829C 
18 -0.0916452C 
19 -0.1030811C 
20 -0.3892339OA
21 -0.0028241C 
22 -0.0287947C 
23 -0.0341541C 
24 -0.0616472C 


$$$$
