
     RDKit          3D

 14 13  0  0  0  0  0  0  0  0999 V2000
    5.5355    0.2566   -0.2965 C   0  0  0  0  0  0  0  0  0  0  0  0
    4.4894   -0.4307    0.0586 C   0  0  0  0  0  0  0  0  0  0  0  0
    3.1432   -0.1008   -0.3611 C   0  0  0  0  0  0  0  0  0  0  0  0
    2.0871   -0.8119    0.0097 C   0  0  0  0  0  0  0  0  0  0  0  0
    0.7146   -0.5013   -0.3997 C   0  0  0  0  0  0  0  0  0  0  0  0
   -0.2073   -0.2213    0.7399 C   0  0  0  0  0  0  0  0  0  0  0  0
   -1.5742    0.0843    0.2582 C   0  0  1  0  0  0  0  0  0  0  0  0
   -2.2345   -0.9837   -0.5325 C   0  0  0  0  0  0  0  0  0  0  0  0
   -2.3895   -2.2536    0.2297 C   0  0  0  0  0  0  0  0  0  0  0  0
   -2.9043   -3.2193   -0.2631 O   0  0  0  0  0  0  0  0  0  0  0  0
   -2.3789    0.7653    1.1249 O   0  0  0  0  0  0  0  0  0  0  0  0
   -1.8441    1.9880    1.4346 C   0  0  0  0  0  0  0  0  0  0  0  0
   -1.6632    2.9372    0.3059 C   0  0  0  0  0  0  0  0  0  0  0  0
   -0.7737    2.4912   -0.7991 C   0  0  0  0  0  0  0  0  0  0  0  0
  1  2  2  0
  2  3  1  0
  3  4  2  3
  4  5  1  0
  5  6  1  0
  7  6  1  1
  7  8  1  0
  8  9  1  0
  9 10  2  0
  7 11  1  0
 11 12  1  0
 12 13  1  0
 13 14  1  0
M  END
>  <fragInfo>  (1) 
1 2
3 4
5
6
7
8
9 10
11
12
13 14


>  <torsionInfo>  (1) 
2 3 0 1
4 5 1 2
5 6 2 3
6 7 3 4
7 8 4 5
7 11 4 7
8 9 5 6
11 12 7 8
12 13 8 9


>  <atomInfo>  (1) 
1  -0.0990769C 
2  -0.0698107C 
3  -0.0668627C 
4  -0.0844601C 
5  -0.0322795C 
6  -0.0228222C 
7  0.06436992C 
8  0.02942448C 
9  0.12207664C 
10 -0.3032959OA
11 -0.3777746OA
12 0.04668724C 
13 -0.0324457C 
14 -0.0631870C 


$$$$
