
     RDKit          2D

 61 62  0  0  0  0  0  0  0  0999 V2000
   -2.9833    7.6276    0.0000 C   0  0  0  0  0  0  0  0  0  0  0  0
   -1.4940    7.4485    0.0000 C   0  0  0  0  0  0  0  0  0  0  0  0
   -0.5943    8.6487    0.0000 C   0  0  0  0  0  0  0  0  0  0  0  0
   -0.9045    6.0692    0.0000 C   0  0  0  0  0  0  0  0  0  0  0  0
    0.5848    5.8901    0.0000 C   0  0  0  0  0  0  0  0  0  0  0  0
    1.1743    4.5108    0.0000 C   0  0  0  0  0  0  0  0  0  0  0  0
    2.6502    4.7787    0.0000 C   0  0  0  0  0  0  0  0  0  0  0  0
    2.7175    6.2772    0.0000 C   0  0  0  0  0  0  0  0  0  0  0  0
    4.0962    4.3796    0.0000 C   0  0  0  0  0  3  0  0  0  0  0  0
    5.2258    3.3927    0.0000 C   0  0  0  0  0  0  0  0  0  0  0  0
    5.8153    2.0134    0.0000 C   0  0  0  0  0  0  0  0  0  0  0  0
    5.7480    0.5149    0.0000 C   0  0  0  0  0  0  0  0  0  0  0  0
    7.1940    0.1159    0.0000 C   0  0  0  0  0  0  0  0  0  0  0  0
    5.0372   -0.8060    0.0000 C   0  0  0  0  0  3  0  0  0  0  0  0
    3.8237   -1.6876    0.0000 C   0  0  0  0  0  0  0  0  0  0  0  0
    1.9635   -1.4266    0.0000 C   0  0  0  0  0  0  0  0  0  0  0  0
    2.4271    0.0000    0.0000 C   0  0  0  0  0  3  0  0  0  0  0  0
    1.9635    1.4266    0.0000 C   0  0  0  0  0  0  0  0  0  0  0  0
    0.7500    2.3083    0.0000 C   0  0  0  0  0  0  0  0  0  0  0  0
    1.2135    3.7348    0.0000 C   0  0  0  0  0  0  0  0  0  0  0  0
    0.2098    4.8496    0.0000 C   0  0  0  0  0  0  0  0  0  0  0  0
    0.7500   -2.3083    0.0000 O   0  0  0  0  0  0  0  0  0  0  0  0
   -0.7500   -2.3083    0.0000 C   0  0  0  0  0  0  0  0  0  0  0  0
   -1.9635   -1.4266    0.0000 C   0  0  0  0  0  3  0  0  0  0  0  0
   -2.4271    0.0000    0.0000 O   0  0  0  0  0  0  0  0  0  0  0  0
   -1.9635    1.4266    0.0000 C   0  0  0  0  0  0  0  0  0  0  0  0
   -0.7500    2.3083    0.0000 C   0  0  0  0  0  0  0  0  0  0  0  0
   -0.0392    3.6292    0.0000 C   0  0  0  0  0  0  0  0  0  0  0  0
   -1.1688    4.6161    0.0000 C   0  0  0  0  0  0  0  0  0  0  0  0
   -2.5883    4.1312    0.0000 C   0  0  0  0  0  0  0  0  0  0  0  0
   -3.7179    5.1182    0.0000 C   0  0  0  0  0  0  0  0  0  0  0  0
   -3.4280    6.5899    0.0000 O   0  0  0  0  0  0  0  0  0  0  0  0
   -4.5576    7.5768    0.0000 O   0  0  0  0  0  0  0  0  0  0  0  0
   -4.2677    9.0485    0.0000 C   0  0  0  0  0  2  0  0  0  0  0  0
   -5.1374    4.6333    0.0000 C   0  0  0  0  0  0  0  0  0  0  0  0
   -6.2670    5.6203    0.0000 C   0  0  0  0  0  0  0  0  0  0  0  0
   -5.9771    7.0920    0.0000 O   0  0  0  0  0  0  0  0  0  0  0  0
   -7.6865    5.1354    0.0000 C   0  0  0  0  0  2  0  0  0  0  0  0
   -8.8161    6.1223    0.0000 O   0  0  0  0  0  0  0  0  0  0  0  0
  -10.2356    5.6375    0.0000 C   0  0  0  0  0  3  0  0  0  0  0  0
  -11.3652    6.6244    0.0000 O   0  0  0  0  0  0  0  0  0  0  0  0
  -12.7847    6.1396    0.0000 C   0  0  0  0  0  0  0  0  0  0  0  0
  -13.9143    7.1265    0.0000 C   0  0  0  0  0  0  0  0  0  0  0  0
  -15.3338    6.6417    0.0000 C   0  0  0  0  0  3  0  0  0  0  0  0
  -16.4634    7.6286    0.0000 C   0  0  0  0  0  0  0  0  0  0  0  0
  -17.8829    7.1438    0.0000 C   0  0  0  0  0  0  0  0  0  0  0  0
  -19.0125    8.1307    0.0000 C   0  0  0  0  0  0  0  0  0  0  0  0
  -20.4320    7.6459    0.0000 C   0  0  0  0  0  3  0  0  0  0  0  0
  -21.5616    8.6328    0.0000 C   0  0  0  0  0  3  0  0  0  0  0  0
  -22.9811    8.1480    0.0000 C   0  0  0  0  0  0  0  0  0  0  0  0
  -24.1107    9.1349    0.0000 C   0  0  0  0  0  0  0  0  0  0  0  0
  -25.5302    8.6501    0.0000 C   0  0  0  0  0  3  0  0  0  0  0  0
  -26.6598    9.6370    0.0000 C   0  0  0  0  0  0  0  0  0  0  0  0
  -28.0793    9.1522    0.0000 C   0  0  0  0  0  3  0  0  0  0  0  0
  -29.2089   10.1391    0.0000 C   0  0  0  0  0  0  0  0  0  0  0  0
  -30.6284    9.6543    0.0000 C   0  0  0  0  0  0  0  0  0  0  0  0
  -31.7580   10.6412    0.0000 C   0  0  0  0  0  3  0  0  0  0  0  0
  -33.1775   10.1564    0.0000 O   0  0  0  0  0  0  0  0  0  0  0  0
  -34.3071   11.1433    0.0000 C   0  0  0  0  0  3  0  0  0  0  0  0
  -35.7266   10.6585    0.0000 C   0  0  0  0  0  3  0  0  0  0  0  0
  -36.8562   11.6454    0.0000 C   0  0  0  0  0  0  0  0  0  0  0  0
  1  2  1  0
  2  3  1  0
  2  4  1  0
  4  5  1  0
  5  6  1  0
  6  7  1  0
  7  8  1  1
  7  9  1  0
  9 10  1  0
 10 11  1  0
 11 12  1  0
 12 13  1  6
 12 14  1  0
 14 15  1  0
 16 15  1  6
 16 17  1  0
 17 18  1  0
 18 19  1  0
 19 20  1  0
 20 21  1  0
 16 22  1  0
 22 23  1  0
 23 24  1  0
 24 25  1  0
 25 26  1  0
 26 27  1  0
 27 28  1  0
 28 29  1  6
 29 30  1  0
 31 30  1  1
 31 32  1  0
 32 33  1  0
 33 34  1  0
 31 35  1  0
 35 36  1  0
 36 37  1  6
 36 38  1  0
 38 39  1  0
 39 40  1  0
 40 41  1  0
 41 42  1  0
 42 43  1  0
 43 44  1  0
 44 45  1  0
 45 46  1  0
 46 47  1  0
 47 48  1  0
 48 49  1  0
 49 50  1  0
 50 51  1  0
 51 52  1  0
 52 53  1  0
 53 54  1  0
 54 55  1  0
 55 56  1  0
 56 57  1  0
 57 58  1  0
 58 59  1  0
 59 60  1  0
 60 61  1  0
 28  6  1  0
 27 19  1  0
M  RAD  8   9   2  14   2  17   2  24   2  34   3  38   3  40   2  44   2
M  RAD  7  48   2  49   2  52   2  54   2  57   2  59   2  60   2
M  END
>  <fragInfo>  (1) 
6 7 8 9 10 11 12 13 14 15 16 17 18 19 22 23 24 25 26 27 28
1 2 3
4
5
20 21
29
30
31
32
33 34
35
36 37
38
39
40
41
42
43
44
45
46
47
48
49
50
51
52
53
54
55
56
57
58
59
60 61


>  <torsionInfo>  (1) 
5 6 3 0
19 20 0 4
28 29 0 5
2 4 1 2
4 5 2 3
29 30 5 6
30 31 6 7
31 32 7 8
31 35 7 10
32 33 8 9
35 36 10 11
36 38 11 12
38 39 12 13
39 40 13 14
40 41 14 15
41 42 15 16
42 43 16 17
43 44 17 18
44 45 18 19
45 46 19 20
46 47 20 21
47 48 21 22
48 49 22 23
49 50 23 24
50 51 24 25
51 52 25 26
52 53 26 27
53 54 27 28
54 55 28 29
55 56 29 30
56 57 30 31
57 58 31 32
58 59 32 33
59 60 33 34


>  <atomInfo>  (1) 
1  -0.0627734C 
2  -0.0471220C 
3  -0.0627734C 
4  -0.0506900C 
5  -0.0496624C 
6  -0.0353591C 
7  -0.0380401C 
8  -0.0619585C 
9  -0.0354555C 
10 -0.0496436C 
11 -0.0501503C 
12 -0.0410528C 
13 -0.0622324C 
14 -0.0331801C 
15 -0.0230648C 
16 0.06107290C 
17 -0.0093839C 
18 -0.0444008C 
19 -0.0360035C 
20 -0.0529400C 
21 -0.0651061C 
22 -0.3751069OA
23 0.07588533C 
24 0.10918307C 
25 -0.3726974OA
26 0.05055232C 
27 -0.0118731C 
28 -0.0329184C 
29 -0.0472224C 
30 -0.0231541C 
31 0.09555614C 
32 -0.2328049OA
33 -0.2270580OA
34 0.15699171C 
35 0.00576634C 
36 0.09189153C 
37 -0.3897621OA
38 0.16638852C 
39 -0.3318728OA
40 0.20982346C 
41 -0.3479480OA
42 0.05022919C 
43 -0.0263613C 
44 -0.0363094C 
45 -0.0500863C 
46 -0.0527459C 
47 -0.0498870C 
48 -0.0351919C 
49 -0.0351818C 
50 -0.0496231C 
51 -0.0498879C 
52 -0.0382899C 
53 -0.0470590C 
54 -0.0382022C 
55 -0.0476039C 
56 -0.0238717C 
57 0.08417270C 
58 -0.3692881OA
59 0.08731229C 
60 -0.0100920C 
61 -0.0595728C 


$$$$
