
     RDKit          3D

 17 16  0  0  0  0  0  0  0  0999 V2000
    4.6632    0.5947    0.2550 O   0  0  0  0  0  0  0  0  0  0  0  0
    4.8517   -0.8025    0.1681 C   0  0  0  0  0  0  0  0  0  0  0  0
    3.7735   -1.4180   -0.6630 C   0  0  0  0  0  3  0  0  0  0  0  0
    2.8094   -0.4340   -1.0629 N   0  0  0  0  0  0  0  0  0  0  0  0
    1.6516   -0.3961   -0.2462 C   0  0  2  0  0  0  0  0  0  0  0  0
    0.8436   -1.6310   -0.2651 C   0  0  0  0  0  0  0  0  0  0  0  0
    1.3985   -2.7799    0.2151 O   0  0  0  0  0  0  0  0  0  0  0  0
    0.7732    0.7733   -0.5631 C   0  0  1  0  0  0  0  0  0  0  0  0
    0.3437    0.6715   -1.8438 O   0  0  0  0  0  0  0  0  0  0  0  0
   -0.3169    0.7440    0.4895 C   0  0  2  0  0  0  0  0  0  0  0  0
   -0.9616   -0.5326    0.3223 O   0  0  0  0  0  0  0  0  0  0  0  0
   -1.4211    1.7640    0.1504 C   0  0  0  0  0  3  0  0  0  0  0  0
   -2.2986    1.1232   -0.8591 C   0  0  0  0  0  3  0  0  0  0  0  0
   -3.1448    0.1281   -0.4788 O   0  0  0  0  0  0  0  0  0  0  0  0
   -3.9554    0.4289    0.5946 C   0  0  2  0  0  0  0  0  0  0  0  0
   -5.2967    0.2093    0.1232 N   0  0  0  0  0  1  0  0  0  0  0  0
   -3.7135    1.5570    1.2265 O   0  0  0  0  0  0  0  0  0  0  0  0
  1  2  1  0
  2  3  1  0
  3  4  1  0
  4  5  1  0
  5  6  1  6
  6  7  1  0
  5  8  1  0
  8  9  1  6
  8 10  1  0
 10 11  1  6
 10 12  1  0
 12 13  1  0
 13 14  1  0
 14 15  1  0
 15 16  1  6
 15 17  1  0
M  CHG  1  16   1
M  RAD  4   3   2  12   2  13   2  16   2
M  END
>  <fragInfo>  (1) 
15 16 17
1 2
3
4
5
6 7
8 9
10 11
12
13
14


>  <torsionInfo>  (1) 
14 15 10 0
2 3 1 2
3 4 2 3
4 5 3 4
5 6 4 5
5 8 4 6
8 10 6 7
10 12 7 8
12 13 8 9
13 14 9 10


>  <atomInfo>  (1) 
1  -0.3946905OA
2  0.06004187C 
3  0.04808498C 
4  -0.3028773NA
5  0.05917776C 
6  0.06106343C 
7  -0.3946489OA
8  0.09774985C 
9  -0.3886905OA
10 0.08734748C 
11 -0.3899570OA
12 0.02464915C 
13 0.09987196C 
14 -0.2850441OA
15 0.49340350C 
16 0.49391384N 
17 -0.3071027OA


$$$$
