
     RDKit          3D

 32 35  0  0  0  0  0  0  0  0999 V2000
    3.1609   -1.3124   -1.5812 C   0  0  0  0  0  0  0  0  0  0  0  0
    3.2580   -1.9587   -0.2467 C   0  0  1  0  0  0  0  0  0  0  0  0
    3.4455   -3.4451   -0.4113 C   0  0  0  0  0  0  0  0  0  0  0  0
    4.3897   -1.3674    0.5720 C   0  0  0  0  0  0  0  0  0  0  0  0
    4.0341    0.0344    0.9754 C   0  0  0  0  0  0  0  0  0  0  0  0
    2.5688    0.3326    0.8739 C   0  0  0  0  0  0  0  0  0  0  0  0
    1.9458    0.6355    2.2331 C   0  0  1  0  0  0  0  0  0  0  0  0
    2.3532    1.9728    2.7579 C   0  0  0  0  0  0  0  0  0  0  0  0
    0.4285    0.5384    2.0338 C   0  0  1  0  0  0  0  0  0  0  0  0
   -0.1072    1.8944    1.6519 C   0  0  0  0  0  0  0  0  0  0  0  0
    0.9201    2.6908    0.8536 C   0  0  0  0  0  0  0  0  0  0  0  0
    0.7990    2.3897   -0.6368 C   0  0  2  0  0  0  0  0  0  0  0  0
    0.4103    3.6006   -1.4239 C   0  0  0  0  0  0  0  0  0  0  0  0
   -0.1194    1.2300   -0.7995 C   0  0  1  0  0  0  0  0  0  0  0  0
   -0.8536    1.1721   -2.0861 C   0  0  0  0  0  0  0  0  0  0  0  0
   -2.2933    1.6285   -1.8129 C   0  0  1  0  0  0  0  0  0  0  0  0
   -2.6292    2.6896   -2.7124 N   0  0  0  0  0  1  0  0  0  0  0  0
   -3.2428    0.4782   -2.0594 C   0  0  0  0  0  3  0  0  0  0  0  0
   -3.9744    0.0530   -0.8098 C   0  0  0  0  0  0  0  0  0  0  0  0
   -3.2572   -1.1114   -0.1215 C   0  0  2  0  0  0  0  0  0  0  0  0
   -2.5691   -1.9094   -1.1789 C   0  0  0  0  0  1  0  0  0  0  0  0
   -4.3359   -1.9807    0.4920 C   0  0  0  0  0  0  0  0  0  0  0  0
   -2.3243   -0.5479    0.8924 C   0  0  1  0  0  0  0  0  0  0  0  0
   -2.9596   -0.1356    2.1717 C   0  0  0  0  0  0  0  0  0  0  0  0
   -2.2973   -1.3524    3.3762 S   0  0  0  0  0  0  0  0  0  0  0  0
   -1.1663   -2.2262    2.2227 C   0  0  0  0  0  0  0  0  0  0  0  0
   -1.0717   -1.2470    1.1101 C   0  0  2  0  0  0  0  0  0  0  0  0
    0.1858   -0.4999    0.9955 C   0  0  1  0  0  0  0  0  0  0  0  0
    0.5398   -0.0199   -0.3687 C   0  0  1  0  0  0  0  0  0  0  0  0
    0.7236   -1.0615   -1.3937 C   0  0  0  0  0  0  0  0  0  0  0  0
    2.0158   -0.9009   -2.1123 C   0  0  0  0  0  0  0  0  0  0  0  0
    2.0226   -0.2642   -3.4571 C   0  0  0  0  0  0  0  0  0  0  0  0
  1  2  1  0
  2  3  1  6
  2  4  1  0
  4  5  1  0
  5  6  1  0
  6  7  1  0
  7  8  1  6
  7  9  1  0
  9 10  1  6
 10 11  1  0
 11 12  1  0
 12 13  1  6
 12 14  1  0
 14 15  1  6
 15 16  1  0
 16 17  1  6
 16 18  1  0
 18 19  1  0
 19 20  1  0
 20 21  1  6
 20 22  1  0
 20 23  1  0
 23 24  1  1
 24 25  1  0
 25 26  1  0
 27 26  1  1
 28 27  1  6
 28 29  1  0
 29 30  1  6
 30 31  1  0
 31 32  1  0
  1 31  2  3
 28  9  1  0
 29 14  1  0
 27 23  1  0
M  CHG  1  17   1
M  RAD  3  17   2  18   2  21   2
M  END
>  <fragInfo>  (1) 
1 2 3 4 5 6 7 8 9 10 11 12 13 14 15 16 17 18 19 20 21 22 23 24 25 26 27 28 29 30 31 32


>  <torsionInfo>  (1) 


>  <atomInfo>  (1) 
1  -0.0827570C 
2  -0.0259383C 
3  -0.0590000C 
4  -0.0472086C 
5  -0.0524915C 
6  -0.0504152C 
7  -0.0411487C 
8  -0.0622340C 
9  -0.0354033C 
10 -0.0496427C 
11 -0.0501476C 
12 -0.0408949C 
13 -0.0622297C 
14 -0.0290137C 
15 0.02211768C 
16 0.28010653C 
17 0.42191060N 
18 0.03976773C 
19 -0.0371633C 
20 -0.0207005C 
21 -0.0019368C 
22 -0.0587242C 
23 -0.0223823C 
24 -0.0030550C 
25 -0.1613734SA
26 -0.0033013C 
27 -0.0247445C 
28 -0.0309592C 
29 -0.0309451C 
30 -0.0288825C 
31 -0.0767496C 
32 -0.0439141C 


$$$$
