
     RDKit          3D

 27 27  0  0  0  0  0  0  0  0999 V2000
    7.3817    1.2172    1.1823 C   0  0  0  0  0  0  0  0  0  0  0  0
    6.3730    2.2357    0.7596 C   0  0  0  0  0  0  0  0  0  0  0  0
    7.0131    3.5006    0.2291 C   0  0  0  0  0  0  0  0  0  0  0  0
    5.4008    2.5920    1.8861 C   0  0  0  0  0  0  0  0  0  0  0  0
    4.4379    3.6179    1.3511 C   0  0  0  0  0  0  0  0  0  0  0  0
    3.6470    3.1152    0.1674 C   0  0  0  0  0  0  0  0  0  0  0  0
    2.8641    1.9153    0.5891 C   0  0  1  0  0  0  0  0  0  0  0  0
    1.8995    2.2279    1.7138 C   0  0  0  0  0  0  0  0  0  0  0  0
    2.1208    1.3041   -0.5929 C   0  0  0  0  0  3  0  0  0  0  0  0
    1.3350    0.0965   -0.1599 C   0  0  0  0  0  0  0  0  0  0  0  0
    0.3393    0.5234    0.8896 C   0  0  0  0  0  0  0  0  0  0  0  0
   -0.4826   -0.6869    1.3560 C   0  0  0  0  0  0  0  0  0  0  0  0
   -1.4792   -0.2598    2.4064 C   0  0  0  0  0  0  0  0  0  0  0  0
    0.4659   -1.7357    1.8537 C   0  0  0  0  0  0  0  0  0  0  0  0
   -1.1665   -1.1928    0.1370 C   0  0  0  0  0  0  0  0  0  0  0  0
   -0.9035   -2.4459   -0.2233 C   0  0  0  0  0  0  0  0  0  0  0  0
   -1.5180   -3.0724   -1.4172 C   0  0  0  0  0  0  0  0  0  0  0  0
   -2.7965   -3.8081   -1.1109 C   0  0  0  0  0  0  0  0  0  0  0  0
   -3.8183   -2.8363   -0.6250 C   0  0  2  0  0  0  0  0  0  0  0  0
   -4.1084   -2.9202    0.7127 O   0  0  0  0  0  0  0  0  0  0  0  0
   -4.9623   -2.6282   -1.5056 C   0  0  0  0  0  0  0  0  0  0  0  0
   -5.1027   -1.7801   -2.4790 C   0  0  0  0  0  0  0  0  0  0  0  0
   -4.1473   -0.7876   -2.9706 C   0  0  0  0  0  0  0  0  0  0  0  0
   -4.5192    0.6448   -2.6122 C   0  0  0  0  0  0  0  0  0  0  0  0
   -3.5275    1.1536   -1.7193 O   0  0  0  0  0  0  0  0  0  0  0  0
   -2.7233    0.3442   -1.0834 C   0  0  0  0  0  0  0  0  0  0  0  0
   -2.0229   -0.3346   -0.5326 C   0  0  0  0  0  0  0  0  0  0  0  0
  1  2  1  0
  2  3  1  0
  2  4  1  0
  4  5  1  0
  5  6  1  0
  6  7  1  0
  7  8  1  1
  7  9  1  0
  9 10  1  0
 10 11  1  0
 11 12  1  0
 12 13  1  0
 12 14  1  0
 12 15  1  0
 15 16  2  3
 16 17  1  0
 17 18  1  0
 18 19  1  0
 19 20  1  1
 19 21  1  0
 21 22  2  3
 22 23  1  0
 23 24  1  0
 24 25  1  0
 25 26  1  0
 26 27  3  0
 27 15  1  0
M  RAD  1   9   2
M  END
>  <fragInfo>  (1) 
15 16 17 18 19 20 21 22 23 24 25 26 27
1 2 3
4
5
6
7 8
9
10
11
12 13 14


>  <torsionInfo>  (1) 
12 15 9 0
2 4 1 2
4 5 2 3
5 6 3 4
6 7 4 5
7 9 5 6
9 10 6 7
10 11 7 8
11 12 8 9


>  <atomInfo>  (1) 
1  -0.0627736C 
2  -0.0471324C 
3  -0.0627736C 
4  -0.0509643C 
5  -0.0527983C 
6  -0.0504266C 
7  -0.0411600C 
8  -0.0622342C 
9  -0.0357182C 
10 -0.0490674C 
11 -0.0431414C 
12 -0.0025745C 
13 -0.0551892C 
14 -0.0551892C 
15 0.00713653C 
16 -0.0721458C 
17 -0.0310604C 
18 -0.0198457C 
19 0.07234320C 
20 -0.3890384OA
21 -0.0600759C 
22 -0.0825645C 
23 0.00056189C 
24 0.10346123C 
25 -0.4460474OA
26 0.11480329C 
27 -0.0276829C 


$$$$
