
     RDKit          3D

 62 68  0  0  0  0  0  0  0  0999 V2000
    6.1634    1.5394    0.1794 C   0  0  0  0  0  0  0  0  0  0  0  0
    5.6990    0.2710   -0.4520 C   0  0  0  0  0  2  0  0  0  0  0  0
    6.7890   -0.5736   -1.0215 C   0  0  0  0  0  0  0  0  0  0  0  0
    6.3633   -2.0363   -0.8711 C   0  0  1  0  0  0  0  0  0  0  0  0
    6.8815   -2.5489    0.4276 C   0  0  0  0  0  0  0  0  0  0  0  0
    7.9834   -2.9358    0.7640 O   0  0  0  0  0  0  0  0  0  0  0  0
    5.5481   -2.3886    1.0831 C   0  0  0  0  0  0  0  0  0  0  0  0
    4.9629   -2.1430   -0.3036 C   0  0  2  0  0  0  0  0  0  0  0  0
    4.3287   -3.4086   -0.8680 C   0  0  0  0  0  0  0  0  0  0  0  0
    2.9321   -3.6043   -0.3373 C   0  0  0  0  0  3  0  0  0  0  0  0
    2.4797   -4.8530   -0.7156 O   0  0  0  0  0  0  0  0  0  0  0  0
    1.1854   -4.7563   -1.2720 C   0  0  0  0  0  0  0  0  0  0  0  0
    0.2365   -4.4604   -0.1441 C   0  0  0  0  0  0  0  0  0  0  0  0
   -1.0860   -3.9684   -0.7074 C   0  0  1  0  0  0  0  0  0  0  0  0
   -1.3670   -4.3658   -2.1228 C   0  0  0  0  0  0  0  0  0  0  0  0
   -2.2508   -4.0946    0.1790 C   0  0  1  0  0  0  0  0  0  0  0  0
   -2.3876   -5.0298    1.2600 C   0  0  0  0  0  0  0  0  0  0  0  0
   -2.3390   -6.4563    0.8431 C   0  0  0  0  0  0  0  0  0  0  0  0
   -1.0803   -6.9042    0.1681 C   0  0  0  0  0  0  0  0  0  0  0  0
   -1.1094   -8.2363   -0.1886 O   0  0  0  0  0  0  0  0  0  0  0  0
   -2.1576   -8.5206   -1.0779 C   0  0  0  0  0  2  0  0  0  0  0  0
   -2.2624   -2.6307    0.3838 C   0  0  0  0  0  0  0  0  0  0  0  0
   -2.8370   -1.4025    0.9959 C   0  0  0  0  0  3  0  0  0  0  0  0
   -4.2999   -1.6200    1.2120 C   0  0  2  0  0  0  0  0  0  0  0  0
   -4.6868   -2.9142    0.8736 O   0  0  0  0  0  0  0  0  0  0  0  0
   -4.8178   -2.9515   -0.4973 C   0  0  0  0  0  0  0  0  0  0  0  0
   -5.4428   -1.6316   -0.8844 C   0  0  0  0  0  0  0  0  0  0  0  0
   -5.1687   -0.7699    0.3381 C   0  0  1  0  0  0  0  0  0  0  0  0
   -6.4612   -0.4307    1.0347 C   0  0  0  0  0  0  0  0  0  0  0  0
   -7.2386    0.3572    0.1939 F   0  0  0  0  0  0  0  0  0  0  0  0
   -1.2292   -2.5158   -0.4061 C   0  0  0  0  0  0  0  0  0  0  0  0
   -0.4591   -1.4013   -0.8605 C   0  0  2  0  0  0  0  0  0  0  0  0
    0.5692   -1.8296   -1.6964 O   0  0  0  0  0  0  0  0  0  0  0  0
    0.1700   -0.6740    0.3109 C   0  0  0  0  0  0  0  0  0  0  0  0
    0.4103    0.7177   -0.0094 N   0  0  0  0  0  0  0  0  0  0  0  0
    0.3222    1.5374    1.1685 C   0  0  0  0  0  3  0  0  0  0  0  0
    1.6802    2.0209    1.6283 C   0  0  1  0  0  0  0  0  0  0  0  0
    2.5441    0.9552    1.7016 O   0  0  0  0  0  0  0  0  0  0  0  0
    3.8203    1.4425    1.4214 C   0  0  0  0  0  0  0  0  0  0  0  0
    3.5222    2.3295    0.2087 C   0  0  2  0  0  0  0  0  0  0  0  0
    3.1568    1.5325   -0.9987 C   0  0  0  0  0  0  0  0  0  0  0  0
    4.4974    3.2754    0.0008 O   0  0  0  0  0  0  0  0  0  0  0  0
    5.6644    2.7810   -0.5255 C   0  0  1  0  0  0  0  0  0  0  0  0
    6.7219    3.8302   -0.3413 C   0  0  0  0  0  0  0  0  0  0  0  0
    7.8708    3.6599   -0.7197 O   0  0  0  0  0  0  0  0  0  0  0  0
    2.2645    3.0389    0.6906 C   0  0  1  0  0  0  0  0  0  0  0  0
    1.4314    3.4065   -0.3339 O   0  0  0  0  0  0  0  0  0  0  0  0
    1.6176    4.7850   -0.5615 C   0  0  0  0  0  3  0  0  0  0  0  0
    0.3096    5.5179   -0.4214 C   0  0  0  0  0  0  0  0  0  0  0  0
   -0.0013    5.8484    1.0146 C   0  0  0  0  0  3  0  0  0  0  0  0
   -1.5227    5.9100    1.1354 C   0  0  0  0  0  0  0  0  0  0  0  0
   -2.0650    4.5107    0.9444 C   0  0  0  0  0  0  0  0  0  0  0  0
   -3.0197    4.5015   -0.2135 C   0  0  0  0  0  3  0  0  0  0  0  0
   -4.1596    5.4759   -0.0017 C   0  0  1  0  0  0  0  0  0  0  0  0
   -3.9271    6.9144   -0.2265 C   0  0  0  0  0  0  0  0  0  0  0  0
   -4.6813    7.5829   -0.8968 O   0  0  0  0  0  0  0  0  0  0  0  0
   -5.4080    4.9702   -0.6885 N   0  0  0  0  0  0  0  0  0  0  0  0
   -5.2713    5.0267    0.7478 C   0  0  1  0  0  0  0  0  0  0  0  0
   -5.1337    3.7573    1.5416 C   0  0  0  0  0  0  0  0  0  0  0  0
   -5.4470    2.5579    0.6698 C   0  0  0  0  0  3  0  0  0  0  0  0
   -4.3573    1.5289    0.9141 C   0  0  0  0  0  0  0  0  0  0  0  0
   -4.4504    0.4739   -0.1634 C   0  0  0  0  0  3  0  0  0  0  0  0
  1  2  1  0
  2  3  1  0
  4  3  1  1
  4  5  1  0
  5  6  2  0
  5  7  1  0
  8  7  1  1
  8  9  1  0
  9 10  1  0
 10 11  1  0
 11 12  1  0
 12 13  1  0
 13 14  1  0
 14 15  1  6
 14 16  1  0
 16 17  1  1
 17 18  1  0
 18 19  1  0
 19 20  1  0
 20 21  1  0
 16 22  1  0
 22 23  1  0
 24 23  1  6
 24 25  1  0
 25 26  1  0
 26 27  1  0
 27 28  1  0
 28 29  1  1
 29 30  1  0
 22 31  2  0
 31 32  1  0
 32 33  1  6
 32 34  1  0
 34 35  1  0
 35 36  1  0
 36 37  1  0
 37 38  1  6
 38 39  1  0
 39 40  1  0
 40 41  1  6
 40 42  1  0
 42 43  1  0
 43 44  1  1
 44 45  2  0
 37 46  1  0
 46 47  1  6
 47 48  1  0
 48 49  1  0
 49 50  1  0
 50 51  1  0
 51 52  1  0
 52 53  1  0
 53 54  1  0
 54 55  1  6
 55 56  2  0
 54 57  1  0
 57 58  1  0
 58 59  1  1
 59 60  1  0
 60 61  1  0
 61 62  1  0
 43  1  1  0
  8  4  1  0
 31 14  1  0
 28 24  1  0
 62 28  1  0
 46 40  1  0
 58 54  1  0
M  RAD  8   2   3  10   2  21   3  23   2  36   2  48   2  50   2  53   2
M  RAD  2  60   2  62   2
M  END
>  <fragInfo>  (1) 
1 2 3 4 5 6 7 8 9 10 11 12 13 14 15 16 22 23 24 25 26 27 28 31 32 33 34 35 36 37 38 39 40 41 42 43 46 47 48 49 50 51 52 53 54 57 58 59 60 61 62
17
18
19
20 21
29 30
44 45
55 56


>  <torsionInfo>  (1) 
16 17 0 1
28 29 0 5
43 44 0 6
54 55 0 7
17 18 1 2
18 19 2 3
19 20 3 4


>  <atomInfo>  (1) 
1  -0.0129795C 
2  -0.0134782C 
3  -0.0362930C 
4  0.02154140C 
5  0.13609178C 
6  -0.2993794OA
7  0.01000372C 
8  -0.0221577C 
9  -0.0202003C 
10 0.08393055C 
11 -0.3754766OA
12 0.04791852C 
13 -0.0197259C 
14 -4.0608797C 
15 -0.0550972C 
16 -0.0101234C 
17 -0.0436400C 
18 -0.0289814C 
19 0.04722878C 
20 -0.3725768OA
21 0.11502874C 
22 -0.0574343C 
23 0.01648909C 
24 0.07315800C 
25 -0.3768541OA
26 0.04772686C 
27 -0.0185897C 
28 0.03087288C 
29 0.09788366C 
30 -0.2503755F 
31 -0.0341194C 
32 0.08824969C 
33 -0.3873960OA
34 0.02561279C 
35 -0.3070356NA
36 0.05407863C 
37 0.10358576C 
38 -0.3706020OA
39 0.07868951C 
40 0.11822943C 
41 -0.0307710C 
42 -0.3593354OA
43 0.11423670C 
44 0.14831009C 
45 -0.3004643OA
46 0.11663920C 
47 -0.3663993OA
48 0.08458901C 
49 -0.0210280C 
50 -0.0359105C 
51 -0.0497252C 
52 -0.0475652C 
53 -0.0095744C 
54 0.09328146C 
55 0.14144021C 
56 -0.3012293OA
57 -0.2985190NA
58 0.03333669C 
59 -0.0323545C 
60 -0.0366526C 
61 -0.0462515C 
62 -0.0267896C 


$$$$
