
     RDKit          3D

 16 15  0  0  0  0  0  0  0  0999 V2000
   -4.5926   -1.0437    1.1775 C   0  0  0  0  0  0  0  0  0  0  0  0
   -3.9455   -0.1514    0.1874 C   0  0  0  0  0  0  0  0  0  0  0  0
   -4.5572    0.8706   -0.2526 O   0  0  0  0  0  0  0  0  0  0  0  0
   -2.6569   -0.4499   -0.2534 O   0  0  0  0  0  0  0  0  0  0  0  0
   -2.0883    0.4373   -1.1994 C   0  0  0  0  0  3  0  0  0  0  0  0
   -1.3677    1.4960   -0.4635 C   0  0  0  0  0  0  0  0  0  0  0  0
   -1.8604    1.8846    0.5964 O   0  0  0  0  0  0  0  0  0  0  0  0
   -1.2634   -0.2513   -2.2378 C   0  0  0  0  0  0  0  0  0  0  0  0
   -0.0372   -0.9340   -1.6748 C   0  0  0  0  0  0  0  0  0  0  0  0
    0.8184    0.1431   -1.0060 C   0  0  0  0  0  3  0  0  0  0  0  0
    2.0699   -0.5234   -0.4260 C   0  0  0  0  0  0  0  0  0  0  0  0
    2.8980    0.5515    0.2270 C   0  0  0  0  0  3  0  0  0  0  0  0
    4.1556   -0.0562    0.8209 C   0  0  2  0  0  0  0  0  0  0  0  0
    4.9641   -0.7125   -0.2743 C   0  0  0  0  0  0  0  0  0  0  0  0
    3.7543   -1.1229    1.7827 C   0  0  0  0  0  0  0  0  0  0  0  0
    3.7089   -0.8823    2.9959 O   0  0  0  0  0  0  0  0  0  0  0  0
  1  2  1  0
  2  3  2  0
  2  4  1  0
  4  5  1  0
  5  6  1  0
  6  7  2  0
  5  8  1  0
  8  9  1  0
  9 10  1  0
 10 11  1  0
 11 12  1  0
 12 13  1  0
 13 14  1  6
 13 15  1  0
 15 16  2  0
M  RAD  3   5   2  10   2  12   2
M  END
>  <fragInfo>  (1) 
1 2 3
4
5
6 7
8
9
10
11
12
13 14
15 16


>  <torsionInfo>  (1) 
2 4 0 1
4 5 1 2
5 6 2 3
5 8 2 4
8 9 4 5
9 10 5 6
10 11 6 7
11 12 7 8
12 13 8 9
13 15 9 10


>  <atomInfo>  (1) 
1  0.03398635C 
2  0.30327671C 
3  -0.2525927OA
4  -0.4466784OA
5  0.21280008C 
6  0.16790416C 
7  -0.2986873OA
8  -0.0010341C 
9  -0.0457365C 
10 -0.0381091C 
11 -0.0463648C 
12 -0.0284159C 
13 0.01485830C 
14 -0.0555466C 
15 0.12258004C 
16 -0.3030889OA


$$$$
