
     RDKit          3D

 20 20  0  0  0  0  0  0  0  0999 V2000
    1.4987    2.0011   -0.1499 O   0  0  0  0  0  0  0  0  0  0  0  0
    0.8814    2.8465   -1.0810 C   0  0  0  0  0  0  0  0  0  0  0  0
   -0.5904    2.5159   -1.1325 C   0  0  0  0  0  3  0  0  0  0  0  0
   -0.7982    1.1635   -0.6496 N   0  0  0  0  0  0  0  0  0  0  0  0
   -2.1899    1.0650   -0.2426 C   0  0  2  0  0  0  0  0  0  0  0  0
   -2.4569    2.0052    0.9348 C   0  0  0  0  0  0  0  0  0  0  0  0
   -1.6231    1.6172    1.9757 O   0  0  0  0  0  0  0  0  0  0  0  0
   -2.5116   -0.3290    0.2518 C   0  0  1  0  0  0  0  0  0  0  0  0
   -3.8814   -0.4661    0.3041 O   0  0  0  0  0  0  0  0  0  0  0  0
   -1.8661   -1.3939   -0.5774 C   0  0  2  0  0  0  0  0  0  0  0  0
   -2.3017   -2.6298   -0.0929 O   0  0  0  0  0  0  0  0  0  0  0  0
   -0.4402   -1.2815   -0.5617 N   0  0  0  0  0  0  0  0  0  0  0  0
    0.1450   -1.9861    0.5580 C   0  0  1  0  0  0  0  0  0  0  0  0
   -0.4304   -3.2265    0.7618 F   0  0  0  0  0  0  0  0  0  0  0  0
    1.6276   -2.2193    0.3548 C   0  0  0  0  0  0  0  0  0  0  0  0
    2.1745   -1.3497   -0.5621 O   0  0  0  0  0  0  0  0  0  0  0  0
    2.7629   -0.3051    0.1359 C   0  0  1  0  0  0  0  0  0  0  0  0
    3.9759   -0.7817    0.9095 C   0  0  0  0  0  0  0  0  0  0  0  0
    3.2138    0.7667   -0.8245 C   0  0  0  0  0  0  0  0  0  0  0  0
    2.8104    1.9873   -0.3123 O   0  0  0  0  0  0  0  0  0  0  0  0
  1  2  1  0
  2  3  1  0
  3  4  1  0
  4  5  1  0
  5  6  1  1
  6  7  1  0
  5  8  1  0
  8  9  1  6
  8 10  1  0
 10 11  1  1
 10 12  1  0
 12 13  1  0
 13 14  1  6
 13 15  1  0
 15 16  1  0
 16 17  1  0
 17 18  1  6
 17 19  1  0
 19 20  1  0
 20  1  1  0
M  RAD  1   3   2
M  END
>  <fragInfo>  (1) 
1 2 3 4 5 8 9 10 11 12 13 14 15 16 17 18 19 20
6 7


>  <torsionInfo>  (1) 
5 6 0 1


>  <atomInfo>  (1) 
1  -0.2349211OA
2  0.09911265C 
3  0.05169871C 
4  -0.3027195NA
5  0.06054145C 
6  0.06111945C 
7  -0.3946478OA
8  0.11081362C 
9  -0.3872555OA
10 0.13448939C 
11 -0.3756946OA
12 -0.2582590NA
13 0.17622990C 
14 -0.2276477F 
15 0.09193308C 
16 -0.3715284OA
17 0.08139343C 
18 -0.0362631C 
19 0.10808852C 
20 -0.2339345OA


$$$$
