
     RDKit          3D

 26 25  0  0  0  0  0  0  0  0999 V2000
    7.6322   -0.3097    0.1877 C   0  0  0  0  0  0  0  0  0  0  0  0
    7.6979   -0.3107    1.6890 C   0  0  0  0  0  0  0  0  0  0  0  0
    8.7347   -1.3493    2.0932 C   0  0  0  0  0  0  0  0  0  0  0  0
    6.4044   -0.6967    2.3459 C   0  0  0  0  0  0  0  0  0  0  0  0
    5.2617    0.2086    2.0111 C   0  0  0  0  0  0  0  0  0  0  0  0
    4.9475    0.2629    0.5391 C   0  0  0  0  0  0  0  0  0  0  0  0
    3.7813    1.2083    0.3500 C   0  0  1  0  0  0  0  0  0  0  0  0
    3.4218    1.3022   -1.1085 C   0  0  0  0  0  0  0  0  0  0  0  0
    2.6251    0.8544    1.2315 C   0  0  0  0  0  3  0  0  0  0  0  0
    2.0908   -0.5364    0.9734 C   0  0  0  0  0  0  0  0  0  0  0  0
    1.6204   -0.6554   -0.4536 C   0  0  0  0  0  0  0  0  0  0  0  0
    0.4946    0.4077   -0.6429 C   0  0  1  0  0  0  0  0  0  0  0  0
    0.0475    0.2526   -2.0996 C   0  0  0  0  0  0  0  0  0  0  0  0
   -0.5616    0.1082    0.3370 C   0  0  0  0  0  3  0  0  0  0  0  0
   -1.6936    0.9785    0.5576 C   0  0  0  0  0  0  0  0  0  0  0  0
   -2.5888    1.2693   -0.5469 C   0  0  2  0  0  0  0  0  0  0  0  0
   -2.0787    1.9497   -1.7539 C   0  0  0  0  0  0  0  0  0  0  0  0
   -3.9720    1.7342   -0.1312 C   0  0  0  0  0  0  0  0  0  0  0  0
   -4.7497    1.9845   -1.4217 C   0  0  0  0  0  0  0  0  0  0  0  0
   -4.8241    0.6939   -2.2195 C   0  0  2  0  0  0  0  0  0  0  0  0
   -5.5391    0.9677   -3.3836 O   0  0  0  0  0  0  0  0  0  0  0  0
   -5.6421   -0.2786   -1.3937 C   0  0  0  0  0  0  0  0  0  0  0  0
   -4.9694   -0.5148   -0.0549 C   0  0  0  0  0  0  0  0  0  0  0  0
   -5.7735   -1.4630    0.7420 C   0  0  0  0  0  0  0  0  0  0  0  0
   -6.9565   -2.0101    0.2631 O   0  0  0  0  0  0  0  0  0  0  0  0
   -5.4107   -1.8090    1.8894 O   0  0  0  0  0  0  0  0  0  0  0  0
  1  2  1  0
  2  3  1  0
  2  4  1  0
  4  5  1  0
  5  6  1  0
  6  7  1  0
  7  8  1  6
  7  9  1  0
  9 10  1  0
 10 11  1  0
 11 12  1  0
 12 13  1  6
 12 14  1  0
 14 15  1  0
 15 16  1  0
 16 17  1  6
 16 18  1  0
 18 19  1  0
 19 20  1  0
 20 21  1  6
 20 22  1  0
 22 23  1  0
 23 24  1  0
 24 25  1  0
 24 26  2  0
M  RAD  2   9   2  14   2
M  END
>  <fragInfo>  (1) 
1 2 3
4
5
6
7 8
9
10
11
12 13
14
15
16 17
18
19
20 21
22
23
24 25 26


>  <torsionInfo>  (1) 
2 4 0 1
4 5 1 2
5 6 2 3
6 7 3 4
7 9 4 5
9 10 5 6
10 11 6 7
11 12 7 8
12 14 8 9
14 15 9 10
15 16 10 11
16 18 11 12
18 19 12 13
19 20 13 14
20 22 14 15
22 23 15 16
23 24 16 17


>  <atomInfo>  (1) 
1  -0.0627736C 
2  -0.0471324C 
3  -0.0627736C 
4  -0.0509643C 
5  -0.0527983C 
6  -0.0504266C 
7  -0.0411603C 
8  -0.0622342C 
9  -0.0357403C 
10 -0.0496542C 
11 -0.0501520C 
12 -0.0411400C 
13 -0.0622339C 
14 -0.0354871C 
15 -0.0473227C 
16 -0.0439013C 
17 -0.0624975C 
18 -0.0482423C 
19 -0.0267387C 
20 0.05455453C 
21 -0.3931146OA
22 -0.0165094C 
23 0.04777321C 
24 0.30293967C 
25 -0.4812291OA
26 -0.2524839OA


$$$$
