
     RDKit          3D

 28 28  0  0  0  0  0  0  0  0999 V2000
    4.6372    1.5374    0.1563 C   0  0  0  0  0  0  0  0  0  0  0  0
    6.1214    1.7769    0.2459 C   0  0  0  0  0  0  0  0  0  0  0  0
    6.7976    1.4853   -1.0747 C   0  0  0  0  0  0  0  0  0  0  0  0
    6.7641    0.8965    1.3108 C   0  0  0  0  0  0  0  0  0  0  0  0
    6.5317   -0.5830    0.9698 C   0  0  0  0  0  0  0  0  0  0  0  0
    5.0501   -0.7765    0.9402 C   0  0  0  0  0  0  0  0  0  0  0  0
    4.5895   -2.1563    0.6238 C   0  0  2  0  0  0  0  0  0  0  0  0
    5.0386   -3.2211    1.5638 C   0  0  0  0  0  0  0  0  0  0  0  0
    4.4971   -2.5196   -0.7982 C   0  0  0  0  0  3  0  0  0  0  0  0
    3.4527   -1.7463   -1.5229 C   0  0  0  0  0  0  0  0  0  0  0  0
    2.0727   -2.0268   -1.1079 C   0  0  0  0  0  0  0  0  0  0  0  0
    1.6831   -1.7328    0.2977 C   0  0  1  0  0  0  0  0  0  0  0  0
    1.8111   -0.2757    0.6794 C   0  0  0  0  0  0  0  0  0  0  0  0
    0.2528   -2.1277    0.5936 C   0  0  0  0  0  0  0  0  0  0  0  0
   -0.6939   -1.3370   -0.3449 C   0  0  2  0  0  0  0  0  0  0  0  0
   -0.4640    0.1480   -0.0605 C   0  0  0  0  0  0  0  0  0  0  0  0
   -2.0857   -1.7731   -0.1626 C   0  0  0  0  0  0  0  0  0  0  0  0
   -3.0991   -1.1700   -0.9803 C   0  0  0  0  0  0  0  0  0  0  0  0
   -3.4072    0.2292   -1.0015 C   0  0  1  0  0  0  0  0  0  0  0  0
   -2.4414    1.1105   -1.3886 O   0  0  0  0  0  0  0  0  0  0  0  0
   -4.7341    0.5325   -1.6138 C   0  0  0  0  0  0  0  0  0  0  0  0
   -4.9784    2.0131   -1.5993 C   0  0  0  0  0  0  0  0  0  0  0  0
   -4.9773    2.5917   -0.2191 C   0  0  1  0  0  0  0  0  0  0  0  0
   -5.2107    3.9715   -0.3197 O   0  0  0  0  0  0  0  0  0  0  0  0
   -6.0027    2.0546    0.6287 N   0  0  0  0  0  0  0  0  0  0  0  0
   -6.0192    0.6509    0.9719 C   0  0  0  0  0  0  0  0  0  0  0  0
   -6.8573    1.0565   -0.0984 C   0  0  1  0  0  0  0  0  0  0  0  0
   -8.3287    1.3910    0.0171 C   0  0  0  0  0  2  0  0  0  0  0  0
  1  2  1  0
  2  3  1  0
  2  4  1  0
  4  5  1  0
  5  6  1  0
  6  7  1  0
  7  8  1  1
  7  9  1  0
  9 10  1  0
 10 11  1  0
 11 12  1  0
 12 13  1  6
 12 14  1  0
 14 15  1  0
 15 16  1  1
 15 17  1  0
 17 18  1  0
 18 19  1  0
 19 20  1  6
 19 21  1  0
 21 22  1  0
 22 23  1  0
 23 24  1  6
 23 25  1  0
 25 26  1  0
 26 27  1  0
 27 28  1  1
 27 25  1  0
M  RAD  2   9   2  28   3
M  END
>  <fragInfo>  (1) 
25 26 27 28
1 2 3
4
5
6
7 8
9
10
11
12 13
14
15 16
17
18
19 20
21
22
23 24


>  <torsionInfo>  (1) 
23 25 17 0
2 4 1 2
4 5 2 3
5 6 3 4
6 7 4 5
7 9 5 6
9 10 6 7
10 11 7 8
11 12 8 9
12 14 9 10
14 15 10 11
15 17 11 12
17 18 12 13
18 19 13 14
19 21 14 15
21 22 15 16
22 23 16 17


>  <atomInfo>  (1) 
1  -0.0627736C 
2  -0.0471324C 
3  -0.0627736C 
4  -0.0509643C 
5  -0.0527983C 
6  -0.0504266C 
7  -0.0411603C 
8  -0.0622342C 
9  -0.0357404C 
10 -0.0496644C 
11 -0.0504170C 
12 -0.0440162C 
13 -0.0624995C 
14 -0.0481155C 
15 -0.0439319C 
16 -0.0624980C 
17 -0.0482430C 
18 -0.0267523C 
19 0.05414185C 
20 -0.3931285OA
21 -0.0232330C 
22 -0.0107253C 
23 0.10733737C 
24 -0.3783793OA
25 -0.2723666NA
26 0.01696412C 
27 0.02834972C 
28 -0.0149712C 


$$$$
