
     RDKit          3D

  6  5  0  0  0  0  0  0  0  0999 V2000
   -2.3673    0.8283   -0.8232 Br  0  0  0  0  0  0  0  0  0  0  0  0
   -2.0084   -0.7533    0.1255 N   0  0  0  0  0  2  0  0  0  0  0  0
   -0.6942   -1.2637   -0.1644 C   0  0  0  0  0  3  0  0  0  0  0  0
    0.3895    0.1339   -0.5185 S   0  0  0  0  0  0  0  0  0  0  0  0
    2.0432   -0.1011    0.2146 C   0  0  0  0  0  0  0  0  0  0  0  0
    2.6373    1.1559    0.2353 F   0  0  0  0  0  0  0  0  0  0  0  0
  1  2  1  0
  2  3  1  0
  3  4  1  0
  4  5  1  0
  5  6  1  0
M  CHG  1   2   1
M  RAD  2   2   3   3   2
M  END
>  <fragInfo>  (1) 
1 2
3
4
5 6


>  <torsionInfo>  (1) 
2 3 0 1
3 4 1 2
4 5 2 3


>  <atomInfo>  (1) 
1  0.36445122Br
2  0.17033607N 
3  0.32822265C 
4  -0.0452530SA
5  0.14117076C 
6  -0.2390337F 


$$$$
