
     RDKit          3D

 52 60  0  0  0  0  0  0  0  0999 V2000
    0.4146    1.6863   -0.0322 C   0  0  0  0  0  0  0  0  0  0  0  0
    1.4490    2.5882    0.5219 C   0  0  0  0  0  2  0  0  0  0  0  0
    2.8447    2.0738    0.2713 C   0  0  0  0  0  0  0  0  0  0  0  0
    3.3601    1.1389    1.3208 C   0  0  2  0  0  0  0  0  0  0  0  0
    4.5566    1.6345    2.0462 C   0  0  0  0  0  3  0  0  0  0  0  0
    5.7729    1.2975    1.2283 C   0  0  0  0  0  0  0  0  0  0  0  0
    6.7778    2.1831    0.9852 C   0  0  0  0  0  0  0  0  0  0  0  0
    7.8653    1.7916    0.2217 C   0  0  0  0  0  0  0  0  0  0  0  0
    7.9464    0.5148   -0.2977 C   0  0  0  0  0  0  0  0  0  0  0  0
    9.0197    0.0973   -1.0627 O   0  0  0  0  0  0  0  0  0  0  0  0
    6.9213   -0.3523   -0.0363 C   0  0  0  0  0  0  0  0  0  0  0  0
    5.8446    0.0254    0.7159 C   0  0  0  0  0  0  0  0  0  0  0  0
    4.7628   -0.9078    0.9835 C   0  0  2  0  0  0  0  0  0  0  0  0
    4.8752   -2.0724    0.1490 N   0  0  0  0  0  0  0  0  0  0  0  0
    4.7097   -1.6707   -1.2316 C   0  0  0  0  0  0  0  0  0  0  0  0
    3.3931   -0.3024    0.9099 C   0  0  1  0  0  0  0  0  0  0  0  0
    2.4648   -1.1876    1.7113 C   0  0  0  0  0  0  0  0  0  0  0  0
    2.1356   -2.3712    0.8835 C   0  0  0  0  0  0  0  0  0  0  0  0
    1.3879   -2.3927   -0.1935 C   0  0  0  0  0  3  0  0  0  0  0  0
    2.8649   -0.3358   -0.5089 C   0  0  0  0  0  0  0  0  0  0  0  0
    3.3238   -1.1905   -1.3903 C   0  0  0  0  0  0  0  0  0  0  0  0
    2.4672   -1.6543   -2.5043 C   0  0  0  0  0  3  0  0  0  0  0  0
    2.4160   -3.0463   -2.5840 O   0  0  0  0  0  0  0  0  0  0  0  0
    1.0437   -1.1338   -2.3028 C   0  0  0  0  0  3  0  0  0  0  0  0
    0.7061   -1.2657   -0.8306 C   0  0  0  0  0  3  0  0  0  0  0  0
   -0.7913   -1.2425   -0.6059 C   0  0  0  0  0  3  0  0  0  0  0  0
   -1.1080   -0.2346    0.4356 C   0  0  0  0  0  3  0  0  0  0  0  0
   -0.0993    0.7619    0.7250 C   0  0  0  0  0  0  0  0  0  0  0  0
   -2.4722    0.3416    0.4205 C   0  0  0  0  0  3  0  0  0  0  0  0
   -3.5851   -0.6108    0.1602 C   0  0  2  0  0  0  0  0  0  0  0  0
   -3.6362   -1.1251   -1.2471 C   0  0  0  0  0  0  0  0  0  0  0  0
   -4.8889    0.1210    0.5316 C   0  0  2  0  0  0  0  0  0  0  0  0
   -5.0652   -0.2551    1.9939 C   0  0  1  0  0  0  0  0  0  0  0  0
   -6.0890   -1.3228    2.2079 C   0  0  0  0  0  2  0  0  0  0  0  0
   -3.8255   -0.8433    2.3610 O   0  0  0  0  0  0  0  0  0  0  0  0
   -3.6602   -1.6221    1.2137 C   0  0  2  0  0  0  0  0  0  0  0  0
   -2.7668   -2.7492    1.2847 C   0  0  0  0  0  3  0  0  0  0  0  0
   -3.6186   -3.9008    1.8550 C   0  0  0  0  0  2  0  0  0  0  0  0
   -4.7580   -3.3621    2.6185 N   0  0  0  0  0  0  0  0  0  0  0  0
   -5.7019   -2.6873    1.7904 C   0  0  0  0  0  3  0  0  0  0  0  0
   -6.0452   -0.3501   -0.3195 C   0  0  0  0  0  3  0  0  0  0  0  0
   -6.9407    0.8954   -0.2575 C   0  0  0  0  0  3  0  0  0  0  0  0
   -7.8384    0.9114   -1.3199 O   0  0  0  0  0  0  0  0  0  0  0  0
   -6.0591    1.9409   -0.3157 O   0  0  0  0  0  0  0  0  0  0  0  0
   -4.8576    1.5697    0.2693 C   0  0  2  0  0  0  0  0  0  0  0  0
   -3.7580    2.0182   -0.6709 C   0  0  0  0  0  2  0  0  0  0  0  0
   -3.2845    3.3941   -0.3326 C   0  0  0  0  0  0  0  0  0  0  0  0
   -3.0372    4.2436   -1.5502 C   0  0  0  0  0  0  0  0  0  0  0  0
   -2.1052    3.5507   -2.3949 O   0  0  0  0  0  0  0  0  0  0  0  0
   -2.1481    2.1677   -2.4095 C   0  0  0  0  0  0  0  0  0  0  0  0
   -1.1944    1.3919   -1.9456 C   0  0  0  0  0  0  0  0  0  0  0  0
    0.0108    1.8496   -1.3660 N   0  0  0  0  0  0  0  0  0  0  0  0
  1  2  1  0
  2  3  1  0
  4  3  1  6
  4  5  1  0
  5  6  1  0
  6  7  2  0
  7  8  1  0
  8  9  2  0
  9 10  1  0
  9 11  1  0
 11 12  2  0
 12 13  1  0
 13 14  1  6
 14 15  1  0
 13 16  1  0
 16 17  1  1
 17 18  1  0
 18 19  2  3
 16 20  1  0
 20 21  2  0
 21 22  1  0
 22 23  1  0
 22 24  1  0
 24 25  1  0
 25 26  1  0
 26 27  1  0
 27 28  1  0
 27 29  1  0
 29 30  1  0
 30 31  1  6
 30 32  1  0
 32 33  1  0
 33 34  1  6
 33 35  1  0
 35 36  1  0
 36 37  1  1
 37 38  1  0
 38 39  1  0
 39 40  1  0
 32 41  1  6
 41 42  1  0
 42 43  1  0
 42 44  1  0
 44 45  1  0
 45 46  1  6
 46 47  1  0
 47 48  1  0
 48 49  1  0
 49 50  1  0
 50 51  2  3
 51 52  1  0
  1 28  2  3
 52  1  1  0
 16  4  1  0
 12  6  1  0
 21 15  1  0
 25 19  1  0
 36 30  1  0
 45 32  1  0
 40 34  1  0
M  RAD  8   2   3   5   2  19   2  22   2  24   2  25   2  26   2  27   2
M  RAD  8  29   2  34   3  37   2  38   3  40   2  41   2  42   2  46   3
M  END
>  <fragInfo>  (1) 
1 2 3 4 5 6 7 8 9 10 11 12 13 14 15 16 17 18 19 20 21 22 23 24 25 26 27 28 29 30 31 32 33 34 35 36 37 38 39 40 41 42 43 44 45 46 47 48 49 50 51 52


>  <torsionInfo>  (1) 


>  <atomInfo>  (1) 
1  0.01956491C 
2  0.03447147C 
3  -0.0358007C 
4  -0.0216500C 
5  -0.0048806C 
6  -0.0388878A 
7  -0.0547186A 
8  -0.0199216A 
9  0.11543119A 
10 -0.5079549OA
11 -0.0151128A 
12 -0.0229349A 
13 0.04245194C 
14 -0.3052695NA
15 0.02001993C 
16 0.01506243C 
17 -0.0231411C 
18 -0.0794602C 
19 -0.0405986C 
20 -0.0723115C 
21 -0.0248206C 
22 0.12378339C 
23 -0.3817116OA
24 0.01260080C 
25 0.01610998C 
26 -0.0154056C 
27 0.00781090C 
28 -0.0567740C 
29 -0.0180281C 
30 0.00927065C 
31 -0.0560824C 
32 0.04099363C 
33 0.07573531C 
34 0.03494103C 
35 -0.3725918OA
36 0.06946235C 
37 0.01492904C 
38 0.06548193C 
39 -0.3024169NA
40 0.03303325C 
41 0.03868300C 
42 0.22537557C 
43 -0.3610334OA
44 -0.3405126OA
45 0.07745316C 
46 0.01844789C 
47 -0.0092683C 
48 0.08804198C 
49 -0.4996593OA
50 0.09883642C 
51 0.03579201C 
52 -0.3621084N 


$$$$
