
     RDKit          2D

 34 40  0  0  0  0  0  0  0  0999 V2000
  -14.1582   -0.8096    0.0000 C   0  0  0  0  0  0  0  0  0  0  0  0
  -14.3038    0.6833    0.0000 N   0  0  0  0  0  0  0  0  0  0  0  0
  -13.3511    1.8420    0.0000 C   0  0  0  0  0  3  0  0  0  0  0  0
  -11.8582    1.9876    0.0000 C   0  0  0  0  0  0  0  0  0  0  0  0
  -10.6996    1.0349    0.0000 C   0  0  0  0  0  3  0  0  0  0  0  0
  -10.5539   -0.4580    0.0000 O   0  0  0  0  0  0  0  0  0  0  0  0
  -11.5066   -1.6166    0.0000 C   0  0  0  0  0  0  0  0  0  0  0  0
  -11.7523   -3.0963    0.0000 C   0  0  0  0  0  0  0  0  0  0  0  0
  -12.9995   -1.7622    0.0000 C   0  0  0  0  0  0  0  0  0  0  0  0
  -13.4363   -3.1972    0.0000 O   0  0  0  0  0  0  0  0  0  0  0  0
  -14.8974   -3.5365    0.0000 C   0  0  0  0  0  0  0  0  0  0  0  0
  -10.1409   -2.2369    0.0000 N   0  0  0  0  0  0  0  0  0  0  0  0
   -9.9953   -3.7299    0.0000 C   0  0  0  0  0  0  0  0  0  0  0  0
   -8.6296   -4.3502    0.0000 C   0  0  0  0  0  0  0  0  0  0  0  0
   -7.4781   -3.3889    0.0000 C   0  0  0  0  0  0  0  0  0  0  0  0
   -6.0086   -3.6898    0.0000 C   0  0  0  0  0  0  0  0  0  0  0  0
   -5.7739   -2.2082    0.0000 C   0  0  0  0  0  0  0  0  0  0  0  0
   -4.7133   -1.1476    0.0000 C   0  0  0  0  0  0  0  0  0  0  0  0
   -8.5959   -5.8498    0.0000 C   0  0  0  0  0  0  0  0  0  0  0  0
   -7.4025   -6.7585    0.0000 C   0  0  0  0  0  0  0  0  0  0  0  0
   -5.9479   -6.3920    0.0000 C   0  0  0  0  0  0  0  0  0  0  0  0
   -5.3276   -5.0263    0.0000 C   0  0  0  0  0  0  0  0  0  0  0  0
   -3.9911   -5.7073    0.0000 C   0  0  0  0  0  0  0  0  0  0  0  0
   -2.5095   -5.4726    0.0000 C   0  0  0  0  0  0  0  0  0  0  0  0
   -1.4489   -4.4120    0.0000 C   0  0  0  0  0  0  0  0  0  0  0  0
   -1.2142   -2.9304    0.0000 C   0  0  0  0  0  0  0  0  0  0  0  0
   -2.5507   -3.6114    0.0000 C   0  0  0  0  0  0  0  0  0  0  0  0
   -3.6114   -2.5507    0.0000 C   0  0  0  0  0  0  0  0  0  0  0  0
   -2.9304   -1.2142    0.0000 C   0  0  0  0  0  0  0  0  0  0  0  0
   -1.4489   -1.4489    0.0000 C   0  0  0  0  0  0  0  0  0  0  0  0
   -1.0607    0.0000    0.0000 C   0  0  0  0  0  0  0  0  0  0  0  0
   -0.0000   -1.0607    0.0000 C   0  0  0  0  0  0  0  0  0  0  0  0
    1.0607    0.0000    0.0000 C   0  0  0  0  0  0  0  0  0  0  0  0
    0.0000    1.0607    0.0000 C   0  0  0  0  0  0  0  0  0  0  0  0
  1  2  1  0
  2  3  1  0
  3  4  1  0
  4  5  1  0
  5  6  1  0
  6  7  1  0
  7  8  1  1
  7  9  1  0
  9 10  1  6
 10 11  1  0
  7 12  1  0
 12 13  2  3
 13 14  1  0
 14 15  1  0
 15 16  2  0
 16 17  1  0
 17 18  2  0
 18 19  1  0
 19 20  1  0
 20 21  1  0
 21 22  1  0
 22 23  1  0
 23 24  1  0
 24 25  2  3
 25 26  1  0
 26 27  2  0
 27 28  1  0
 28 29  2  0
 29 30  1  0
 30 31  1  0
 31 32  1  0
 32 33  2  0
 33 34  2  0
  9  1  1  0
 19 14  2  0
 22 16  1  0
 29 18  1  0
 30 26  1  0
 32 30  1  0
 34 31  1  0
M  RAD  2   3   2   5   2
M  END
>  <fragInfo>  (1) 
14 15 16 17 18 19 20 21 22 23 24 25 26 27 28 29 30 31 32 33 34
1 2 3 4 5 6 7 8 9
10 11
12 13


>  <torsionInfo>  (1) 
13 14 3 0
7 12 1 3
9 10 1 2


>  <atomInfo>  (1) 
1  0.02667367C 
2  -0.3095527NA
3  0.02485220C 
4  -0.0070385C 
5  0.08845590C 
6  -0.3453309OA
7  0.18323334C 
8  -0.0121533C 
9  0.11864023C 
10 -0.3750424OA
11 0.03615524C 
12 -0.2558907NA
13 0.03230284C 
14 -0.0035334A 
15 -0.0496152A 
16 -0.0433150A 
17 -0.0508237A 
18 -0.0170032A 
19 -0.0316168A 
20 -0.0260367C 
21 -0.0419566C 
22 -0.0123662C 
23 -0.0278153C 
24 -0.0836100C 
25 -0.0617298C 
26 -0.0319557C 
27 -0.0574151C 
28 -0.0568153C 
29 -0.0240970C 
30 0.06102651C 
31 0.03233114C 
32 -0.0035535C 
33 -0.1233303C 
34 -0.0328610C 


$$$$
