
     RDKit          3D

 31 31  0  0  0  0  0  0  0  0999 V2000
    9.2343    0.0796    0.2191 C   0  0  0  0  0  0  0  0  0  0  0  0
    7.8588   -0.3933    0.7157 C   0  0  0  0  0  0  0  0  0  0  0  0
    7.2972    0.7616    1.5159 C   0  0  0  0  0  0  0  0  0  0  0  0
    8.0937   -1.4526    1.5744 O   0  0  0  0  0  0  0  0  0  0  0  0
    7.0734   -0.7424   -0.5008 C   0  0  0  0  0  0  0  0  0  0  0  0
    5.6901   -1.2342   -0.2789 C   0  0  0  0  0  0  0  0  0  0  0  0
    4.7752   -0.3250    0.4045 C   0  0  0  0  0  0  0  0  0  0  0  0
    4.7624   -0.2853    1.6207 O   0  0  0  0  0  0  0  0  0  0  0  0
    3.8225    0.5896   -0.3299 C   0  0  1  0  0  0  0  0  0  0  0  0
    4.0851    2.0312   -0.0357 C   0  0  0  0  0  0  0  0  0  0  0  0
    3.9769    0.4075   -1.7184 O   0  0  0  0  0  0  0  0  0  0  0  0
    2.4305    0.1399    0.0883 C   0  0  0  0  0  3  0  0  0  0  0  0
    1.3592    0.9735   -0.5774 C   0  0  2  0  0  0  0  0  0  0  0  0
    1.4911    2.3055   -0.1398 O   0  0  0  0  0  0  0  0  0  0  0  0
    0.0228    0.4366   -0.1079 C   0  0  0  0  0  0  0  0  0  0  0  0
   -0.0391   -1.0064   -0.5361 C   0  0  0  0  0  3  0  0  0  0  0  0
    1.0372   -1.8657    0.0368 C   0  0  0  0  0  0  0  0  0  0  0  0
   -1.4151   -1.5384   -0.2907 C   0  0  0  0  0  0  0  0  0  0  0  0
   -2.3874   -0.6974   -1.1120 C   0  0  0  0  0  0  0  0  0  0  0  0
   -2.3301    0.7182   -0.7169 C   0  0  0  0  0  0  0  0  0  0  0  0
   -3.3956    1.3492   -0.2531 C   0  0  0  0  0  0  0  0  0  0  0  0
   -4.6649    0.6224   -0.1291 C   0  0  1  0  0  0  0  0  0  0  0  0
   -5.0524    0.5563    1.3304 C   0  0  0  0  0  0  0  0  0  0  0  0
   -5.7748    1.2325   -0.9550 C   0  0  0  0  0  0  0  0  0  0  0  0
   -6.6946    0.2259   -1.5553 C   0  0  0  0  0  0  0  0  0  0  0  0
   -6.3814   -1.1956   -1.2245 C   0  0  0  0  0  0  0  0  0  0  0  0
   -6.2437   -1.4411    0.1236 O   0  0  0  0  0  0  0  0  0  0  0  0
   -7.1584   -0.7485    0.9164 C   0  0  1  0  0  0  0  0  0  0  0  0
   -7.7794   -1.6434    1.9469 C   0  0  0  0  0  0  0  0  0  0  0  0
   -6.5543    0.5021    1.5073 C   0  0  2  0  0  0  0  0  0  0  0  0
   -7.1392    1.6378    0.9791 F   0  0  0  0  0  0  0  0  0  0  0  0
  1  2  1  0
  2  3  1  0
  2  4  1  0
  2  5  1  0
  5  6  1  0
  6  7  1  0
  7  8  2  0
  7  9  1  0
  9 10  1  6
  9 11  1  0
  9 12  1  0
 12 13  1  0
 13 14  1  1
 13 15  1  0
 15 16  1  0
 16 17  1  0
 16 18  1  0
 18 19  1  0
 19 20  1  0
 20 21  2  3
 22 21  1  0
 22 23  1  1
 22 24  1  0
 24 25  1  0
 25 26  1  0
 26 27  1  0
 27 28  1  0
 28 29  1  1
 28 30  1  0
 30 31  1  6
 30 23  1  0
M  RAD  2  12   2  16   2
M  END
>  <fragInfo>  (1) 
22 23 24 25 26 27 28 29 30 31
1 2 3 4
5
6
7 8
9 10 11
12
13 14
15
16 17
18
19
20 21


>  <torsionInfo>  (1) 
21 22 12 0
2 5 1 2
5 6 2 3
6 7 3 4
7 9 4 5
9 12 5 6
12 13 6 7
13 15 7 8
15 16 8 9
16 18 9 10
18 19 10 11
19 20 11 12


>  <atomInfo>  (1) 
1  -0.0363415C 
2  0.05955686C 
3  -0.0363415C 
4  -0.3904578OA
5  -0.0176634C 
6  0.01184091C 
7  0.16406254C 
8  -0.2964498OA
9  0.12559642C 
10 -0.0284666C 
11 -0.3819634OA
12 0.02903472C 
13 0.06101047C 
14 -0.3926754OA
15 -0.0206330C 
16 -0.0243283C 
17 -0.0590132C 
18 -0.0437635C 
19 -0.0345224C 
20 -0.0882373C 
21 -0.0853104C 
22 -0.0204048C 
23 -0.0127728C 
24 -0.0446648C 
25 -0.0290245C 
26 0.04708564C 
27 -0.3754896OA
28 0.08585062C 
29 -0.0357946C 
30 0.12643065C 
31 -0.2446179F 


$$$$
