
     RDKit          3D

 26 26  0  0  0  0  0  0  0  0999 V2000
   -5.0451   -2.0126    1.2824 C   0  0  0  0  0  0  0  0  0  0  0  0
   -4.6787   -0.5891    0.9267 C   0  0  1  0  0  0  0  0  0  0  0  0
   -3.9835    0.0439    2.0880 C   0  0  0  0  0  0  0  0  0  0  0  0
   -3.2671    1.3112    1.7759 C   0  0  2  0  0  0  0  0  0  0  0  0
   -4.0514    2.4482    1.9355 O   0  0  0  0  0  0  0  0  0  0  0  0
   -2.6031    1.3372    0.4350 C   0  0  2  0  0  0  0  0  0  0  0  0
   -2.0823    2.5944    0.2042 O   0  0  0  0  0  0  0  0  0  0  0  0
   -3.5817    0.9167   -0.6327 C   0  0  1  0  0  0  0  0  0  0  0  0
   -3.1447    1.1431   -1.9136 O   0  0  0  0  0  0  0  0  0  0  0  0
   -3.9333   -0.5278   -0.3568 C   0  0  1  0  0  0  0  0  0  0  0  0
   -2.7092   -1.2950   -0.3919 N   0  0  0  0  0  0  0  0  0  0  0  0
   -1.7165   -0.8615    0.5484 C   0  0  0  0  0  3  0  0  0  0  0  0
   -0.9348   -2.0859    0.9965 C   0  0  0  0  0  0  0  0  0  0  0  0
    0.2399   -2.3184    0.1003 C   0  0  0  0  0  3  0  0  0  0  0  0
    0.9155   -3.4718    0.4443 O   0  0  0  0  0  0  0  0  0  0  0  0
    1.1367   -1.0880    0.1641 C   0  0  1  0  0  0  0  0  0  0  0  0
    1.6389   -0.9655    1.4616 O   0  0  0  0  0  0  0  0  0  0  0  0
    2.2979   -1.3459   -0.7449 C   0  0  1  0  0  0  0  0  0  0  0  0
    1.8862   -1.4794   -2.0666 O   0  0  0  0  0  0  0  0  0  0  0  0
    3.2801   -0.2019   -0.6149 C   0  0  2  0  0  0  0  0  0  0  0  0
    2.6539    0.9513   -1.0220 O   0  0  0  0  0  0  0  0  0  0  0  0
    4.5196   -0.5483   -1.3774 C   0  0  0  0  0  3  0  0  0  0  0  0
    5.5959    0.4787   -1.3521 C   0  0  0  0  0  0  0  0  0  0  0  0
    5.3084    1.6043   -0.6297 O   0  0  0  0  0  0  0  0  0  0  0  0
    6.2959    2.4530   -0.6571 O   0  0  0  0  0  0  0  0  0  0  0  0
    5.9624    3.5093   -1.3393 O   0  0  0  0  0  0  0  0  0  0  0  0
  2  1  1  1
  2  3  1  0
  3  4  1  0
  4  5  1  6
  4  6  1  0
  6  7  1  6
  6  8  1  0
  8  9  1  6
  8 10  1  0
 10 11  1  1
 11 12  1  0
 12 13  1  0
 13 14  1  0
 14 15  1  0
 14 16  1  0
 16 17  1  1
 16 18  1  0
 18 19  1  6
 18 20  1  0
 20 21  1  6
 20 22  1  0
 22 23  1  0
 23 24  1  0
 24 25  1  0
 25 26  1  0
 10  2  1  0
M  RAD  3  12   2  14   2  22   2
M  END
>  <fragInfo>  (1) 
1 2 3 4 5 6 7 8 9 10
11
12
13
14 15
16 17
18 19
20 21
22
23
24
25 26


>  <torsionInfo>  (1) 
10 11 0 1
11 12 1 2
12 13 2 3
13 14 3 4
14 16 4 5
16 18 5 6
18 20 6 7
20 22 7 8
22 23 8 9
23 24 9 10
24 25 10 11


>  <atomInfo>  (1) 
1  -0.0608233C 
2  -0.0236285C 
3  -0.0201755C 
4  0.08280077C 
5  -0.3903155OA
6  0.10722522C 
7  -0.3876533OA
8  0.09792914C 
9  -0.3886791OA
10 0.03839103C 
11 -0.3066463NA
12 0.02552520C 
13 -0.0014867C 
14 0.12587380C 
15 -0.3838744OA
16 0.11404771C 
17 -0.3871791OA
18 0.10900723C 
19 -0.3875827OA
20 0.08811845C 
21 -0.3899258OA
22 0.02191987C 
23 0.09116565C 
24 -0.2059674OA
25 -0.0709159OA
26 -0.2211437OA


$$$$
