
     RDKit          3D

 26 27  0  0  0  0  0  0  0  0999 V2000
   -1.9932    1.7046    0.9928 C   0  0  0  0  0  0  0  0  0  0  0  0
   -2.0638    2.3913   -0.1986 O   0  0  0  0  0  0  0  0  0  0  0  0
   -0.7926    2.4738   -0.9838 C   0  0  0  0  0  0  0  0  0  0  0  0
   -0.2697    1.1788   -1.2247 C   0  0  0  0  0  0  0  0  0  0  0  0
   -0.9966    0.0115   -0.7658 C   0  0  0  0  0  0  0  0  0  0  0  0
   -1.6132   -0.9524   -1.3686 C   0  0  0  0  0  0  0  0  0  0  0  0
   -2.3194   -1.9636   -0.5623 N   0  0  0  0  0  0  0  0  0  0  0  0
   -3.6015   -1.4381    0.0607 C   0  0  0  0  0  3  0  0  0  0  0  0
   -3.6301    0.0651    0.0232 C   0  0  1  0  0  0  0  0  0  0  0  0
   -4.8701    0.6022   -0.2096 O   0  0  0  0  0  0  0  0  0  0  0  0
   -3.0557    0.6901    1.2742 C   0  0  1  0  0  0  0  0  0  0  0  0
   -2.5829   -0.4278    2.2192 C   0  0  1  0  0  0  0  0  0  0  0  0
   -3.5190   -1.4503    2.2735 O   0  0  0  0  0  0  0  0  0  0  0  0
   -1.3709   -1.0740    1.4993 C   0  0  0  0  0  3  0  0  0  0  0  0
   -0.6673   -0.0435    0.7654 C   0  0  1  0  0  0  0  0  0  0  0  0
    0.7130   -0.2701    0.8082 O   0  0  0  0  0  0  0  0  0  0  0  0
    1.3991    0.7864    0.1702 C   0  0  0  0  0  0  0  0  0  0  0  0
    2.6198    0.6199    0.2188 O   0  0  0  0  0  0  0  0  0  0  0  0
    3.7549    0.9119   -0.0543 O   0  0  0  0  0  0  0  0  0  0  0  0
    4.0257    0.5896   -1.4340 C   0  0  0  0  0  0  0  0  0  0  0  0
    5.0851   -0.4753   -1.3150 C   0  0  0  0  0  0  0  0  0  0  0  0
    6.2839   -0.1423   -0.5993 C   0  0  0  0  0  0  0  0  0  0  0  0
    6.2642    0.3150    0.7594 C   0  0  0  0  0  3  0  0  0  0  0  0
    5.6167   -0.5163    1.7870 C   0  0  0  0  0  2  0  0  0  0  0  0
   -1.4224   -1.1258   -2.8690 C   0  0  0  0  0  3  0  0  0  0  0  0
   -0.9940   -2.4605   -2.9578 O   0  0  0  0  0  0  0  0  0  0  0  0
  1  2  1  0
  2  3  1  0
  3  4  2  3
  4  5  1  0
  5  6  2  3
  6  7  1  0
  7  8  1  0
  8  9  1  0
  9 10  1  1
  9 11  1  0
 11 12  1  0
 12 13  1  6
 12 14  1  0
 14 15  1  0
 15 16  1  6
 16 17  1  0
 17 18  1  0
 18 19  1  0
 19 20  1  0
 20 21  1  0
 21 22  1  0
 22 23  1  0
 23 24  1  0
  6 25  1  0
 25 26  1  0
 11  1  1  6
 15  5  1  0
M  RAD  5   8   2  14   2  23   2  24   3  25   2
M  END
>  <fragInfo>  (1) 
1 2 3 4 5 6 7 8 9 10 11 12 13 14 15
16
17
18
19
20
21
22
23 24
25 26


>  <torsionInfo>  (1) 
6 25 0 9
15 16 0 1
16 17 1 2
17 18 2 3
18 19 3 4
19 20 4 5
20 21 5 6
21 22 6 7
22 23 7 8


>  <atomInfo>  (1) 
1  0.09515621C 
2  -0.5006879OA
3  0.08329908C 
4  -0.0198592C 
5  0.00605576C 
6  0.04931972C 
7  -0.3782904N 
8  0.07497647C 
9  0.08472268C 
10 -0.3903745OA
11 0.04745827C 
12 0.06872388C 
13 -0.3921802OA
14 0.02413904C 
15 0.09311684C 
16 -0.3438226OA
17 0.18108629C 
18 -0.2079373OA
19 -0.2343455OA
20 0.08231794C 
21 -0.0261340C 
22 -0.0475749C 
23 -0.0347977C 
24 -0.0315032C 
25 0.12517149C 
26 -0.3837322OA


$$$$
