
     RDKit          3D

 36 36  0  0  0  0  0  0  0  0999 V2000
   12.6352   -1.6904   -0.4735 C   0  0  0  0  0  0  0  0  0  0  0  0
   11.3554   -1.4047   -0.1758 C   0  0  0  0  0  0  0  0  0  0  0  0
   11.0885   -0.7831    1.1367 C   0  0  0  0  0  0  0  0  0  0  0  0
   10.3505   -1.7314   -1.2082 C   0  0  0  0  0  0  0  0  0  0  0  0
    9.5925   -0.5024   -1.5834 C   0  0  0  0  0  0  0  0  0  0  0  0
    8.7802    0.0875   -0.4860 C   0  0  0  0  0  0  0  0  0  0  0  0
    7.7040   -0.8455   -0.0618 C   0  0  1  0  0  0  0  0  0  0  0  0
    8.1985   -2.1645    0.4315 C   0  0  0  0  0  0  0  0  0  0  0  0
    6.8013   -0.1678    0.9255 C   0  0  0  0  0  0  0  0  0  0  0  0
    6.1968    1.0573    0.2354 C   0  0  0  0  0  0  0  0  0  0  0  0
    5.2816    1.7315    1.2588 C   0  0  0  0  0  0  0  0  0  0  0  0
    4.1946    0.7310    1.6709 C   0  0  0  0  0  3  0  0  0  0  0  0
    3.3828    0.3076    0.4764 C   0  0  0  0  0  3  0  0  0  0  0  0
    3.7574    1.0740   -0.7758 C   0  0  0  0  0  2  0  0  0  0  0  0
    3.4470    2.5513   -0.6327 C   0  0  0  0  0  3  0  0  0  0  0  0
    1.7206    2.7044   -0.0728 S   0  0  0  0  0  0  0  0  0  0  0  0
    0.9592    1.0752    0.1245 C   0  0  0  0  0  0  0  0  0  0  0  0
   -0.4609    1.2745    0.5873 C   0  0  0  0  0  0  0  0  0  0  0  0
   -1.0968   -0.0940    0.7518 C   0  0  0  0  0  0  0  0  0  0  0  0
   -2.5126    0.1115    1.2135 C   0  0  0  0  0  0  0  0  0  0  0  0
   -3.3489    0.9031    0.2630 C   0  0  0  0  0  0  0  0  0  0  0  0
   -3.4858    0.2972   -1.0934 C   0  0  0  0  0  3  0  0  0  0  0  0
   -4.1161   -1.0656   -1.0821 C   0  0  0  0  0  0  0  0  0  0  0  0
   -5.5434   -0.9760   -1.2056 O   0  0  0  0  0  0  0  0  0  0  0  0
   -6.2427   -0.2769   -0.2344 C   0  0  0  0  0  0  0  0  0  0  0  0
   -6.6860    1.1015   -0.5581 C   0  0  0  0  0  0  0  0  0  0  0  0
   -8.1660    1.2787   -0.5163 C   0  0  1  0  0  0  0  0  0  0  0  0
   -8.8255    1.3569   -1.8508 C   0  0  0  0  0  0  0  0  0  0  0  0
   -8.8712    0.4266    0.4828 C   0  0  1  0  0  0  0  0  0  0  0  0
  -10.0748    1.1059    1.0829 C   0  0  0  0  0  0  0  0  0  0  0  0
   -9.1459   -0.9711    0.0189 C   0  0  0  0  0  0  0  0  0  0  0  0
   -8.8408   -1.9177    1.1636 C   0  0  0  0  0  0  0  0  0  0  0  0
   -8.3733   -1.1728    2.4008 C   0  0  0  0  0  3  0  0  0  0  0  0
   -7.2068   -0.2486    2.0442 C   0  0  0  0  0  0  0  0  0  0  0  0
   -6.4709   -0.8807    0.9182 C   0  0  0  0  0  0  0  0  0  0  0  0
   -5.9776   -2.2824    1.1459 C   0  0  0  0  0  0  0  0  0  0  0  0
  1  2  2  0
  2  3  1  0
  2  4  1  0
  4  5  1  0
  5  6  1  0
  6  7  1  0
  7  8  1  1
  7  9  1  0
  9 10  1  0
 10 11  1  0
 11 12  1  0
 12 13  1  0
 13 14  1  0
 14 15  1  0
 15 16  1  0
 16 17  1  0
 17 18  1  0
 18 19  1  0
 19 20  1  0
 20 21  1  0
 21 22  1  0
 22 23  1  0
 23 24  1  0
 24 25  1  0
 25 26  1  0
 26 27  1  0
 27 28  1  6
 27 29  1  0
 29 30  1  6
 29 31  1  0
 31 32  1  0
 32 33  1  0
 33 34  1  0
 34 35  1  0
 35 36  1  0
 25 35  2  3
M  RAD  6  12   2  13   2  14   3  15   2  22   2  33   2
M  END
>  <fragInfo>  (1) 
25 26 27 28 29 30 31 32 33 34 35 36
1 2 3
4
5
6
7 8
9
10
11
12
13
14
15
16
17
18
19
20
21
22
23
24


>  <torsionInfo>  (1) 
24 25 21 0
2 4 1 2
4 5 2 3
5 6 3 4
6 7 4 5
7 9 5 6
9 10 6 7
10 11 7 8
11 12 8 9
12 13 9 10
13 14 10 11
14 15 11 12
15 16 12 13
16 17 13 14
17 18 14 15
18 19 15 16
19 20 16 17
20 21 17 18
21 22 18 19
22 23 19 20
23 24 20 21


>  <atomInfo>  (1) 
1  -0.1001409C 
2  -0.0805164C 
3  -0.0442043C 
4  -0.0325669C 
5  -0.0493249C 
6  -0.0504066C 
7  -0.0442687C 
8  -0.0625095C 
9  -0.0507005C 
10 -0.0527673C 
11 -0.0498645C 
12 -0.0345324C 
13 -0.0265843C 
14 0.00191623C 
15 0.02433101C 
16 -0.1567652SA
17 -0.0064121C 
18 -0.0441399C 
19 -0.0525077C 
20 -0.0528744C 
21 -0.0468022C 
22 -0.0009860C 
23 0.09089490C 
24 -0.4976881OA
25 0.09514113C 
26 0.00769502C 
27 -0.0346486C 
28 -0.0618215C 
29 -0.0412560C 
30 -0.0622412C 
31 -0.0501582C 
32 -0.0495995C 
33 -0.0344107C 
34 -0.0255741C 
35 -0.0352491C 
36 -0.0403077C 


$$$$
