
     RDKit          3D

 29 29  0  0  0  0  0  0  0  0999 V2000
    6.1453    1.5438    1.4374 C   0  0  0  0  0  0  0  0  0  0  0  0
    6.8710    0.9688    0.2916 C   0  0  0  0  0  0  0  0  0  0  0  0
    8.0117    0.0616    0.6415 C   0  0  0  0  0  0  0  0  0  0  0  0
    6.0597    0.3838   -0.8136 C   0  0  0  0  0  0  0  0  0  0  0  0
    5.1906   -0.7227   -0.2934 C   0  0  0  0  0  0  0  0  0  0  0  0
    4.1614   -0.1660    0.6463 C   0  0  0  0  0  0  0  0  0  0  0  0
    3.2173    0.7107   -0.1240 C   0  0  1  0  0  0  0  0  0  0  0  0
    3.8808    1.8484   -0.8148 C   0  0  0  0  0  0  0  0  0  0  0  0
    2.5665   -0.1731   -1.1908 C   0  0  0  0  0  3  0  0  0  0  0  0
    1.8207   -1.3096   -0.5105 C   0  0  0  0  0  0  0  0  0  0  0  0
    0.7370   -0.7657    0.4125 C   0  0  1  0  0  0  0  0  0  0  0  0
   -0.2679    0.0566   -0.3461 C   0  0  0  0  0  3  0  0  0  0  0  0
    0.3642    1.2774   -0.9847 C   0  0  0  0  0  0  0  0  0  0  0  0
   -1.0585   -0.7523   -1.3414 C   0  0  0  0  0  3  0  0  0  0  0  0
   -1.5147    0.1995   -2.4433 C   0  0  0  0  0  0  0  0  0  0  0  0
   -2.7187    0.9442   -1.9326 C   0  0  2  0  0  0  0  0  0  0  0  0
   -2.3796    1.9170   -0.9070 N   0  0  0  0  0  1  0  0  0  0  0  0
   -3.7551   -0.0031   -1.3353 C   0  0  0  0  0  0  0  0  0  0  0  0
   -4.9848    0.8233   -1.0547 C   0  0  0  0  0  0  0  0  0  0  0  0
   -5.7026    0.4417    0.1883 C   0  0  2  0  0  0  0  0  0  0  0  0
   -6.9931    0.0071   -0.1645 O   0  0  0  0  0  0  0  0  0  0  0  0
   -5.9069    1.7040    1.0176 C   0  0  0  0  0  0  0  0  0  0  0  0
   -5.0558   -0.6437    0.9831 C   0  0  0  0  0  0  0  0  0  0  0  0
   -3.5670   -0.6317    0.9526 C   0  0  0  0  0  0  0  0  0  0  0  0
   -2.9727   -0.4430    2.1893 O   0  0  0  0  0  0  0  0  0  0  0  0
   -1.5916   -0.3115    1.9516 C   0  0  0  0  0  0  0  0  0  0  0  0
   -1.0730   -1.6999    1.7219 C   0  0  0  0  0  0  0  0  0  0  0  0
    0.0246   -1.9316    0.9980 C   0  0  0  0  0  0  0  0  0  0  0  0
    0.4912   -3.3339    0.8048 C   0  0  0  0  0  0  0  0  0  0  0  0
  1  2  1  0
  2  3  1  0
  2  4  1  0
  4  5  1  0
  5  6  1  0
  6  7  1  0
  7  8  1  6
  7  9  1  0
  9 10  1  0
 11 10  1  6
 11 12  1  0
 12 13  1  0
 12 14  1  0
 14 15  1  0
 15 16  1  0
 16 17  1  1
 16 18  1  0
 18 19  1  0
 19 20  1  0
 20 21  1  0
 20 22  1  1
 20 23  1  0
 23 24  1  0
 24 25  1  0
 25 26  1  0
 26 27  1  0
 27 28  2  3
 28 29  1  0
 28 11  1  0
M  CHG  1  17   1
M  RAD  4   9   2  12   2  14   2  17   2
M  END
>  <fragInfo>  (1) 
11 12 13 14 15 16 17 18 19 20 21 22 23 24 25 26 27 28 29
1 2 3
4
5
6
7 8
9
10


>  <torsionInfo>  (1) 
10 11 7 0
2 4 1 2
4 5 2 3
5 6 3 4
6 7 4 5
7 9 5 6
9 10 6 7


>  <atomInfo>  (1) 
1  -0.0627736C 
2  -0.0471324C 
3  -0.0627736C 
4  -0.0509643C 
5  -0.0527983C 
6  -0.0504262C 
7  -0.0411383C 
8  -0.0622339C 
9  -0.0351383C 
10 -0.0427632C 
11 -0.0139980C 
12 -0.0164326C 
13 -0.0582320C 
14 -0.0248520C 
15 0.02211919C 
16 0.27695994C 
17 0.42156862N 
18 0.02116168C 
19 -0.0179446C 
20 0.06437059C 
21 -0.3900882OA
22 -0.0359876C 
23 -0.0007854C 
24 0.04971268C 
25 -0.3772771OA
26 0.06495815C 
27 -0.0597692C 
28 -0.0713501C 
29 -0.0435497C 


$$$$
