
     RDKit          3D

 29 29  0  0  0  0  0  0  0  0999 V2000
    3.6051    2.9467   -0.6214 C   0  0  0  0  0  0  0  0  0  0  0  0
    4.1230    1.9956    0.4447 C   0  0  1  0  0  0  0  0  0  0  0  0
    2.9899    1.6187    1.3627 C   0  0  0  0  0  0  0  0  0  0  0  0
    4.6812    0.7930   -0.2674 C   0  0  0  0  0  0  0  0  0  0  0  0
    3.7036   -0.3523   -0.3415 C   0  0  0  0  0  0  0  0  0  0  0  0
    4.0762   -1.3910    0.6747 C   0  0  0  0  0  0  0  0  0  0  0  0
    4.0041   -2.7945    0.1501 C   0  0  1  0  0  0  0  0  0  0  0  0
    3.9387   -3.7251    1.3568 C   0  0  0  0  0  0  0  0  0  0  0  0
    2.8290   -3.0277   -0.7647 C   0  0  0  0  0  3  0  0  0  0  0  0
    1.5403   -2.5003   -0.1682 C   0  0  0  0  0  0  0  0  0  0  0  0
    0.7758   -3.5746    0.5746 C   0  0  0  0  0  0  0  0  0  0  0  0
   -0.5873   -3.7859   -0.0195 C   0  0  2  0  0  0  0  0  0  0  0  0
   -0.5626   -3.7020   -1.5361 C   0  0  0  0  0  0  0  0  0  0  0  0
   -1.6449   -2.9071    0.5853 C   0  0  0  0  0  3  0  0  0  0  0  0
   -2.9926   -3.4282    0.0945 C   0  0  0  0  0  0  0  0  0  0  0  0
   -3.8249   -2.2395   -0.3323 C   0  0  1  0  0  0  0  0  0  0  0  0
   -5.2773   -2.6729   -0.4622 C   0  0  0  0  0  0  0  0  0  0  0  0
   -3.7562   -1.1072    0.6787 C   0  0  0  0  0  0  0  0  0  0  0  0
   -3.1256    0.0862    0.0071 C   0  0  0  0  0  3  0  0  0  0  0  0
   -4.1315    1.2002   -0.1001 C   0  0  2  0  0  0  0  0  0  0  0  0
   -4.8188    1.1623   -1.3098 O   0  0  0  0  0  0  0  0  0  0  0  0
   -3.3918    2.5047    0.0461 C   0  0  1  0  0  0  0  0  0  0  0  0
   -2.9863    2.6784    1.4845 C   0  0  0  0  0  0  0  0  0  0  0  0
   -2.2559    2.4497   -0.7769 O   0  0  0  0  0  0  0  0  0  0  0  0
   -1.8773    3.7126   -1.0721 N   0  0  0  0  0  0  0  0  0  0  0  0
   -0.9216    4.1831   -0.0725 C   0  0  0  0  0  0  0  0  0  0  0  0
    0.7165    3.5272   -0.5329 S   0  0  0  0  0  0  0  0  0  0  0  0
    1.9145    4.0812    0.7231 C   0  0  0  0  0  0  0  0  0  0  0  0
    3.2566    4.2684    0.0445 C   0  0  0  0  0  3  0  0  0  0  0  0
  1  2  1  0
  2  3  1  1
  2  4  1  0
  4  5  1  0
  5  6  1  0
  6  7  1  0
  7  8  1  1
  7  9  1  0
  9 10  1  0
 10 11  1  0
 11 12  1  0
 12 13  1  6
 12 14  1  0
 14 15  1  0
 15 16  1  0
 16 17  1  1
 16 18  1  0
 18 19  1  0
 19 20  1  0
 20 21  1  6
 20 22  1  0
 22 23  1  1
 22 24  1  0
 24 25  1  0
 25 26  1  0
 26 27  1  0
 27 28  1  0
 28 29  1  0
 29  1  1  0
M  RAD  4   9   2  14   2  19   2  29   2
M  END
>  <fragInfo>  (1) 
1 2 3 4 5 6 7 8 9 10 11 12 13 14 15 16 17 18 19 20 21 22 23 24 25 26 27 28 29


>  <torsionInfo>  (1) 


>  <atomInfo>  (1) 
1  -0.0467698C 
2  -0.0439762C 
3  -0.0624988C 
4  -0.0506902C 
5  -0.0527880C 
6  -0.0504264C 
7  -0.0411603C 
8  -0.0622342C 
9  -0.0357403C 
10 -0.0496542C 
11 -0.0501520C 
12 -0.0411400C 
13 -0.0622339C 
14 -0.0354870C 
15 -0.0473123C 
16 -0.0436236C 
17 -0.0624871C 
18 -0.0449095C 
19 -0.0069676C 
20 0.08505638C 
21 -0.3900498OA
22 0.10232135C 
23 -0.0340668C 
24 -0.2952612OA
25 -0.1921820NA
26 0.06658668C 
27 -0.1438139SA
28 -0.0022352C 
29 -0.0283726C 


$$$$
