
     RDKit          2D

 61 60  0  0  0  0  0  0  0  0999 V2000
   11.6913   15.7500    0.0000 O   0  0  0  0  0  0  0  0  0  0  0  0
   11.6913   14.2500    0.0000 C   0  0  0  0  0  0  0  0  0  0  0  0
   10.3923   13.5000    0.0000 C   0  0  0  0  0  3  0  0  0  0  0  0
   10.3923   12.0000    0.0000 N   0  0  0  0  0  0  0  0  0  0  0  0
    9.0933   11.2500    0.0000 C   0  0  0  0  0  0  0  0  0  0  0  0
    7.7942   12.0000    0.0000 C   0  0  0  0  0  0  0  0  0  0  0  0
    7.7942   13.5000    0.0000 O   0  0  0  0  0  0  0  0  0  0  0  0
    9.0933    9.7500    0.0000 C   0  0  0  0  0  0  0  0  0  0  0  0
    7.7942    9.0000    0.0000 O   0  0  0  0  0  0  0  0  0  0  0  0
   10.3923    9.0000    0.0000 C   0  0  0  0  0  0  0  0  0  0  0  0
   11.6913    9.7500    0.0000 O   0  0  0  0  0  0  0  0  0  0  0  0
   10.3923    7.5000    0.0000 O   0  0  0  0  0  0  0  0  0  0  0  0
   11.6913    6.7500    0.0000 C   0  0  0  0  0  0  0  0  0  0  0  0
   12.9904    7.5000    0.0000 C   0  0  0  0  0  0  0  0  0  0  0  0
   12.9904    9.0000    0.0000 O   0  0  0  0  0  0  0  0  0  0  0  0
   14.2894    9.7500    0.0000 O   0  0  0  0  0  0  0  0  0  0  0  0
   14.2894   11.2500    0.0000 C   0  0  0  0  0  0  0  0  0  0  0  0
   15.5885   12.0000    0.0000 O   0  0  0  0  0  0  0  0  0  0  0  0
   15.5885   13.5000    0.0000 C   0  0  0  0  0  0  0  0  0  0  0  0
   16.8875   14.2500    0.0000 C   0  0  0  0  0  0  0  0  0  0  0  0
   16.8875   15.7500    0.0000 O   0  0  0  0  0  0  0  0  0  0  0  0
   18.1865   16.5000    0.0000 C   0  0  0  0  0  3  0  0  0  0  0  0
   18.1865   18.0000    0.0000 O   0  0  0  0  0  0  0  0  0  0  0  0
   11.6913    5.2500    0.0000 C   0  0  0  0  0  0  0  0  0  0  0  0
   12.9904    4.5000    0.0000 O   0  0  0  0  0  0  0  0  0  0  0  0
   10.3923    4.5000    0.0000 C   0  0  0  0  0  0  0  0  0  0  0  0
    9.0933    5.2500    0.0000 O   0  0  0  0  0  0  0  0  0  0  0  0
   10.3923    3.0000    0.0000 C   0  0  0  0  0  0  0  0  0  0  0  0
    9.0933    2.2500    0.0000 O   0  0  0  0  0  0  0  0  0  0  0  0
    9.0933    0.7500    0.0000 C   0  0  0  0  0  0  0  0  0  0  0  0
   10.3923   -0.0000    0.0000 O   0  0  0  0  0  0  0  0  0  0  0  0
    7.7942   -0.0000    0.0000 O   0  0  0  0  0  0  0  0  0  0  0  0
    6.4952    0.7500    0.0000 C   0  0  0  0  0  0  0  0  0  0  0  0
    5.1962   -0.0000    0.0000 N   0  0  0  0  0  4  0  0  0  0  0  0
    5.1962   -1.5000    0.0000 O   0  0  0  0  0  0  0  0  0  0  0  0
    6.4952   -2.2500    0.0000 C   0  0  0  0  0  0  0  0  0  0  0  0
    6.4952   -3.7500    0.0000 O   0  0  0  0  0  0  0  0  0  0  0  0
    7.7942   -4.5000    0.0000 O   0  0  0  0  0  0  0  0  0  0  0  0
    3.8971    0.7500    0.0000 C   0  0  0  0  0  0  0  0  0  0  0  0
    3.8971    2.2500    0.0000 C   0  0  0  0  0  0  0  0  0  0  0  0
    2.5981    3.0000    0.0000 O   0  0  0  0  0  0  0  0  0  0  0  0
    2.5981    4.5000    0.0000 C   0  0  0  0  0  2  0  0  0  0  0  0
    2.5981   -0.0000    0.0000 O   0  0  0  0  0  0  0  0  0  0  0  0
    2.5981   -1.5000    0.0000 O   0  0  0  0  0  0  0  0  0  0  0  0
    1.2990   -2.2500    0.0000 C   0  0  0  0  0  0  0  0  0  0  0  0
    1.2990   -3.7500    0.0000 O   0  0  0  0  0  0  0  0  0  0  0  0
    0.0000   -4.5000    0.0000 C   0  0  0  0  0  0  0  0  0  0  0  0
    0.0000   -6.0000    0.0000 O   0  0  0  0  0  0  0  0  0  0  0  0
    1.2990   -6.7500    0.0000 O   0  0  0  0  0  0  0  0  0  0  0  0
    2.5981   -6.0000    0.0000 C   0  0  0  0  0  0  0  0  0  0  0  0
   -1.2990   -3.7500    0.0000 O   0  0  0  0  0  0  0  0  0  0  0  0
   -1.2990   -2.2500    0.0000 C   0  0  0  0  0  0  0  0  0  0  0  0
   -2.5981   -1.5000    0.0000 O   0  0  0  0  0  0  0  0  0  0  0  0
   -2.5981   -0.0000    0.0000 O   0  0  0  0  0  0  0  0  0  0  0  0
   -3.8971    0.7500    0.0000 C   0  0  0  0  0  0  0  0  0  0  0  0
   -3.8971    2.2500    0.0000 O   0  0  0  0  0  0  0  0  0  0  0  0
   -5.1962    3.0000    0.0000 O   0  0  0  0  0  0  0  0  0  0  0  0
   -5.1962    4.5000    0.0000 O   0  0  0  0  0  0  0  0  0  0  0  0
   -6.4952    5.2500    0.0000 C   0  0  0  0  0  0  0  0  0  0  0  0
   -6.4952    6.7500    0.0000 O   0  0  0  0  0  0  0  0  0  0  0  0
   -7.7942    4.5000    0.0000 O   0  0  0  0  0  0  0  0  0  0  0  0
  1  2  1  0
  2  3  1  0
  3  4  1  0
  4  5  1  0
  5  6  1  1
  6  7  1  0
  5  8  1  0
  8  9  1  6
  8 10  1  0
 10 11  1  6
 10 12  1  0
 12 13  1  0
 13 14  1  1
 14 15  1  0
 15 16  1  0
 16 17  1  0
 17 18  1  0
 18 19  1  0
 19 20  1  0
 20 21  1  0
 21 22  1  0
 22 23  1  0
 13 24  1  0
 24 25  1  6
 24 26  1  0
 26 27  1  1
 26 28  1  0
 28 29  1  0
 29 30  1  0
 30 31  1  6
 30 32  1  0
 32 33  1  0
 33 34  2  3
 34 35  1  0
 35 36  1  0
 36 37  1  0
 37 38  1  0
 34 39  1  0
 39 40  1  6
 40 41  1  0
 41 42  1  0
 39 43  1  0
 43 44  1  0
 44 45  1  0
 45 46  1  0
 47 46  1  6
 47 48  1  0
 48 49  1  0
 49 50  1  0
 47 51  1  0
 51 52  1  0
 52 53  1  0
 53 54  1  0
 54 55  1  0
 55 56  1  0
 56 57  1  0
 57 58  1  0
 58 59  1  0
 59 60  1  0
 59 61  1  0
M  CHG  1  34   1
M  RAD  3   3   2  22   2  42   3
M  END
>  <fragInfo>  (1) 
59 60 61
1 2
3
4
5
6 7
8 9
10 11
12
13
14
15
16
17
18
19
20
21
22 23
24 25
26 27
28
29
30 31
32
33 34
35
36
37 38
39
40
41 42
43
44
45
46
47
48
49 50
51
52
53
54
55
56
57
58


>  <torsionInfo>  (1) 
58 59 46 0
2 3 1 2
3 4 2 3
4 5 3 4
5 6 4 5
5 8 4 6
8 10 6 7
10 12 7 8
12 13 8 9
13 14 9 10
13 24 9 19
14 15 10 11
15 16 11 12
16 17 12 13
17 18 13 14
18 19 14 15
19 20 15 16
20 21 16 17
21 22 17 18
24 26 19 20
26 28 20 21
28 29 21 22
29 30 22 23
30 32 23 24
32 33 24 25
34 35 25 26
34 39 25 29
35 36 26 27
36 37 27 28
39 40 29 30
39 43 29 32
40 41 30 31
43 44 32 33
44 45 33 34
45 46 34 35
46 47 35 36
47 48 36 37
47 51 36 39
48 49 37 38
51 52 39 40
52 53 40 41
53 54 41 42
54 55 42 43
55 56 43 44
56 57 44 45
57 58 45 46


>  <atomInfo>  (1) 
1  -0.3946905OA
2  0.06004188C 
3  0.04808625C 
4  -0.3027953NA
5  0.06164152C 
6  0.06116347C 
7  -0.3946470OA
8  0.12211596C 
9  -0.3860964OA
10 0.18252607C 
11 -0.3657614OA
12 -0.3414892OA
13 0.11571831C 
14 0.11126835C 
15 -0.2314733OA
16 -0.2078715OA
17 0.18034988C 
18 -0.3498255OA
19 0.07315052C 
20 0.07350033C 
21 -0.3456927OA
22 0.20632238C 
23 -0.3639422OA
24 0.11075344C 
25 -0.3875111OA
26 0.10605370C 
27 -0.3878991OA
28 0.08193836C 
29 -0.3173521OA
30 0.31770748C 
31 -0.3358594OA
32 -0.3915017OA
33 0.38018503C 
34 0.04732895N 
35 -0.2395684OA
36 0.28909193C 
37 -0.1900326OA
38 -0.2480181OA
39 0.35870973C 
40 0.14330439C 
41 -0.3625023OA
42 0.11554953C 
43 -0.1558050OA
44 -0.2013148OA
45 0.18626898C 
46 -0.2978475OA
47 0.30492587C 
48 -0.1746087OA
49 -0.2350038OA
50 0.07149384C 
51 -0.2978511OA
52 0.18607554C 
53 -0.2052291OA
54 -0.2021616OA
55 0.21741125C 
56 -0.1739766OA
57 -0.0604055OA
58 -0.1443472OA
59 0.29900891C 
60 -0.3440387OA
61 -0.3440387OA


$$$$
