
     RDKit          3D

 11 11  0  0  0  0  0  0  0  0999 V2000
    3.2391    0.0226   -0.1907 O   0  0  0  0  0  0  0  0  0  0  0  0
    2.2472   -0.9734   -0.0501 C   0  0  0  0  0  0  0  0  0  0  0  0
    1.0216   -0.5001   -0.8000 C   0  0  1  0  0  0  0  0  0  0  0  0
   -0.0113   -1.4824   -0.6835 N   0  0  0  0  0  0  0  0  0  0  0  0
   -0.8115   -1.3272    0.5135 C   0  0  0  0  0  0  0  0  0  0  0  0
   -1.6595   -0.0807    0.3989 C   0  0  2  0  0  0  0  0  0  0  0  0
   -2.9044   -0.3212   -0.1312 O   0  0  0  0  0  0  0  0  0  0  0  0
   -0.9526    0.9303   -0.4713 C   0  0  1  0  0  0  0  0  0  0  0  0
   -1.3665    2.2164   -0.1787 O   0  0  0  0  0  0  0  0  0  0  0  0
    0.5252    0.8003   -0.2074 C   0  0  1  0  0  0  0  0  0  0  0  0
    0.6727    0.7155    1.1933 O   0  0  0  0  0  0  0  0  0  0  0  0
  1  2  1  0
  3  2  1  1
  3  4  1  0
  4  5  1  0
  5  6  1  0
  6  7  1  6
  6  8  1  0
  8  9  1  1
  8 10  1  0
 10 11  1  1
 10  3  1  0
M  END
>  <fragInfo>  (1) 
3 4 5 6 7 8 9 10 11
1 2


>  <torsionInfo>  (1) 
2 3 1 0


>  <atomInfo>  (1) 
1  -0.3946490OA
2  0.06105637C 
3  0.05902457C 
4  -0.3067635NA
5  0.02436730C 
6  0.09488935C 
7  -0.3889905OA
8  0.10855016C 
9  -0.3875979OA
10 0.09995681C 
11 -0.3885947OA


$$$$
