
     RDKit          3D

 16 17  0  0  0  0  0  0  0  0999 V2000
   -3.6034    2.7692   -1.1528 C   0  0  0  0  0  0  0  0  0  0  0  0
   -4.3781    2.0311   -0.2222 O   0  0  0  0  0  0  0  0  0  0  0  0
   -3.7268    1.3201    0.7459 C   0  0  0  0  0  0  0  0  0  0  0  0
   -2.7653    0.4579    0.5445 C   0  0  0  0  0  0  0  0  0  0  0  0
   -2.1399    0.0242   -0.6921 C   0  0  0  0  0  0  0  0  0  0  0  0
   -1.1956   -0.8825   -0.3681 C   0  0  0  0  0  0  0  0  0  0  0  0
   -1.1730   -1.0688    1.0709 C   0  0  0  0  0  0  0  0  0  0  0  0
   -2.0867   -0.2879    1.5964 C   0  0  0  0  0  0  0  0  0  0  0  0
   -0.2724   -1.9812    1.7937 C   0  0  0  0  0  0  0  0  0  0  0  0
    1.1660   -1.5881    1.5273 C   0  0  0  0  0  0  0  0  0  0  0  0
    1.5143   -1.6517    0.0688 C   0  0  0  0  0  0  0  0  0  0  0  0
    2.9505   -1.2476   -0.0952 C   0  0  1  0  0  0  0  0  0  0  0  0
    3.5683   -1.2211   -1.4588 C   0  0  0  0  0  0  0  0  0  0  0  0
    3.1999    0.0752   -0.8281 C   0  0  2  0  0  0  0  0  0  0  0  0
    4.3363    0.8689   -0.1887 C   0  0  0  0  0  0  0  0  0  0  0  0
    4.6059    2.3824   -1.0446 Cl  0  0  0  0  0  0  0  0  0  0  0  0
  1  2  1  0
  2  3  1  0
  3  4  2  3
  4  5  1  0
  5  6  2  0
  6  7  1  0
  7  8  2  0
  7  9  1  0
  9 10  1  0
 10 11  1  0
 12 11  1  6
 12 13  1  0
 13 14  1  0
 14 15  1  1
 15 16  1  0
  8  4  1  0
 14 12  1  0
M  END
>  <fragInfo>  (1) 
3 4 5 6 7 8
1 2
9
10
11
12 13 14
15 16


>  <torsionInfo>  (1) 
2 3 1 0
7 9 0 2
9 10 2 3
10 11 3 4
11 12 4 5
14 15 5 6


>  <atomInfo>  (1) 
1  0.07663350C 
2  -0.5037425OA
3  0.08965665C 
4  0.00922552C 
5  -0.0516217C 
6  -0.0583128C 
7  -0.0472880C 
8  -0.0486839C 
9  -0.0278529C 
10 -0.0489586C 
11 -0.0498131C 
12 -0.0371109C 
13 -0.0458796C 
14 -0.0246669C 
15 0.02540186C 
16 -0.1264036Cl


$$$$
