
     RDKit          3D

 26 27  0  0  0  0  0  0  0  0999 V2000
    1.9059    1.1572   -1.6956 C   0  0  0  0  0  0  0  0  0  0  0  0
    2.8382    0.0129   -1.3010 C   0  0  1  0  0  0  0  0  0  0  0  0
    4.2413    0.3937   -1.4847 C   0  0  0  0  0  0  0  0  0  0  0  0
    4.5824    1.3295   -0.3217 C   0  0  2  0  0  0  0  0  0  0  0  0
    5.7643    2.0202   -0.5744 O   0  0  0  0  0  0  0  0  0  0  0  0
    4.6164    0.4391    0.8829 C   0  0  2  0  0  0  0  0  0  0  0  0
    5.4337   -0.6568    0.6271 O   0  0  0  0  0  0  0  0  0  0  0  0
    3.2276   -0.0398    1.1947 C   0  0  1  0  0  0  0  0  0  0  0  0
    2.4978    0.9608    1.8964 O   0  0  0  0  0  0  0  0  0  0  0  0
    2.4562   -0.5966    0.0281 C   0  0  1  0  0  0  0  0  0  0  0  0
    1.0523   -0.1398    0.2786 N   0  0  0  0  0  0  0  0  0  0  0  0
    0.2325   -0.4705   -0.8500 C   0  0  0  0  0  3  0  0  0  0  0  0
   -1.1319   -0.8727   -0.6612 C   0  0  0  0  0  0  0  0  0  0  0  0
   -1.5004   -0.8201    0.8629 C   0  0  1  0  0  0  0  0  0  0  0  0
   -0.6467   -1.6621    1.4989 O   0  0  0  0  0  0  0  0  0  0  0  0
   -1.4626    0.5595    1.3173 C   0  0  0  0  0  3  0  0  0  0  0  0
   -2.7006    1.1494    1.4569 O   0  0  0  0  0  0  0  0  0  0  0  0
   -2.7557    2.2236    0.7079 O   0  0  0  0  0  0  0  0  0  0  0  0
   -3.2969    1.8543   -0.4392 O   0  0  0  0  0  0  0  0  0  0  0  0
   -4.3905    1.0505   -0.1348 C   0  0  2  0  0  0  0  0  0  0  0  0
   -4.8413    1.2263    1.1583 O   0  0  0  0  0  0  0  0  0  0  0  0
   -4.0297   -0.7540   -0.4095 P   0  0  0  0  0  0  0  0  0  0  0  0
   -3.5841   -1.0900   -2.0287 O   0  0  0  0  0  0  0  0  0  0  0  0
   -2.9083   -1.4444    0.7968 C   0  0  1  0  0  0  0  0  0  0  0  0
   -2.5071   -2.7739    0.4602 O   0  0  0  0  0  0  0  0  0  0  0  0
   -3.0927   -3.0563   -0.6709 O   0  0  0  0  0  0  0  0  0  0  0  0
  2  1  1  1
  2  3  1  0
  3  4  1  0
  4  5  1  6
  4  6  1  0
  6  7  1  6
  6  8  1  0
  8  9  1  6
  8 10  1  0
 10 11  1  1
 11 12  1  0
 12 13  1  0
 13 14  1  0
 14 15  1  1
 14 16  1  0
 16 17  1  0
 17 18  1  0
 18 19  1  0
 19 20  1  0
 20 21  1  1
 20 22  1  0
 22 23  1  0
 22 24  1  0
 24 25  1  6
 25 26  1  0
 10  2  1  0
 24 14  1  0
M  RAD  2  12   2  16   2
M  END
>  <fragInfo>  (1) 
14 15 16 17 18 19 20 21 22 23 24
1 2 3 4 5 6 7 8 9 10
11
12
13
25 26


>  <torsionInfo>  (1) 
13 14 4 0
24 25 0 5
10 11 1 2
11 12 2 3
12 13 3 4


>  <atomInfo>  (1) 
1  -0.0608233C 
2  -0.0236285C 
3  -0.0201755C 
4  0.08280077C 
5  -0.3903155OA
6  0.10722522C 
7  -0.3876533OA
8  0.09792914C 
9  -0.3886791OA
10 0.03839103C 
11 -0.3066462NA
12 0.02553264C 
13 -0.0011325C 
14 0.13402149C 
15 -0.3835101OA
16 0.16012365C 
17 -0.1964856OA
18 -0.0644000OA
19 -0.1667064OA
20 0.23740554C 
21 -0.3604529OA
22 0.12373660P 
23 -0.3663468OA
24 0.17219462C 
25 -0.2255976OA
26 -0.2509752OA


$$$$
