
     RDKit          3D

 36 36  0  0  0  0  0  0  0  0999 V2000
    3.6360   -0.0437   -3.8481 C   0  0  0  0  0  0  0  0  0  0  0  0
    3.7176   -0.3815   -2.3686 C   0  0  0  0  0  0  0  0  0  0  0  0
    3.4897    0.8298   -1.5102 C   0  0  0  0  0  0  0  0  0  0  0  0
    5.0919   -0.9228   -2.1148 C   0  0  0  0  0  0  0  0  0  0  0  0
    2.6727   -1.3478   -2.1062 N   0  0  0  0  0  0  0  0  0  0  0  0
    2.1862   -1.1569   -0.7843 C   0  0  0  0  0  0  0  0  0  0  0  0
    1.4522    0.1350   -0.5829 C   0  0  2  0  0  0  0  0  0  0  0  0
    1.5565    0.7161    0.7557 C   0  0  0  0  0  3  0  0  0  0  0  0
    1.0439   -0.3074    1.7777 C   0  0  0  0  0  0  0  0  0  0  0  0
    2.2222   -1.1025    2.0962 N   0  0  0  0  0  0  0  0  0  0  0  0
    3.1239   -0.2389    2.8275 C   0  0  0  0  0  0  0  0  0  0  0  0
    2.4900    0.0501    4.1643 C   0  0  0  0  0  0  0  0  0  0  0  0
    3.3134    0.9392    5.0237 C   0  0  0  0  0  0  0  0  0  0  0  0
    4.6564    0.3428    5.3035 C   0  0  0  0  0  0  0  0  0  0  0  0
    5.4450    0.1071    4.0700 C   0  0  0  0  0  0  0  0  0  0  0  0
    5.6769    1.4122    3.3362 C   0  0  0  0  0  0  0  0  0  0  0  0
    6.4976    1.2756    2.0995 C   0  0  0  0  0  0  0  0  0  0  0  0
    5.9138    0.3693    1.0529 C   0  0  0  0  0  0  0  0  0  0  0  0
    0.3911    0.3487   -1.3688 O   0  0  0  0  0  0  0  0  0  0  0  0
   -0.5896   -0.6158   -1.1320 C   0  0  2  0  0  0  0  0  0  0  0  0
   -1.6267   -0.3894   -2.1927 C   0  0  0  0  0  0  0  0  0  0  0  0
   -1.9539    0.9090   -2.4758 C   0  0  0  0  0  0  0  0  0  0  0  0
   -2.9148    1.2124   -3.4400 C   0  0  0  0  0  0  0  0  0  0  0  0
   -3.5464    0.2014   -4.1173 C   0  0  0  0  0  0  0  0  0  0  0  0
   -4.4964    0.4796   -5.0663 F   0  0  0  0  0  0  0  0  0  0  0  0
   -3.1989   -1.0987   -3.8167 C   0  0  0  0  0  0  0  0  0  0  0  0
   -2.2398   -1.3949   -2.8555 C   0  0  0  0  0  0  0  0  0  0  0  0
   -1.1708   -0.3401    0.1792 N   0  0  0  0  0  0  0  0  0  0  0  0
   -2.1467   -1.2890    0.5663 C   0  0  0  0  0  3  0  0  0  0  0  0
   -3.5216   -0.6945    0.6368 C   0  0  0  0  0  0  0  0  0  0  0  0
   -3.4562    0.7191    0.3412 N   0  0  0  0  0  0  0  0  0  0  0  0
   -4.7629    1.2325    0.3298 N   0  0  0  0  0  0  0  0  0  0  0  0
   -5.6057    0.3969    1.1194 C   0  0  0  0  0  0  0  0  0  0  0  0
   -6.9920    0.8682    1.1110 N   0  0  0  0  0  0  0  0  0  0  0  0
   -7.7975    0.0548    1.9057 N   0  0  0  0  0  0  0  0  0  0  0  0
   -8.5570   -0.7646    1.0837 N   0  0  0  0  0  0  0  0  0  0  0  0
  1  2  1  0
  2  3  1  0
  2  4  1  0
  2  5  1  0
  5  6  1  0
  7  6  1  1
  7  8  1  0
  8  9  1  0
  9 10  1  0
 10 11  1  0
 11 12  1  0
 12 13  1  0
 13 14  1  0
 14 15  1  0
 15 16  1  0
 16 17  1  0
 17 18  1  0
  7 19  1  0
 19 20  1  0
 20 21  1  0
 21 22  2  0
 22 23  1  0
 23 24  2  0
 24 25  1  0
 24 26  1  0
 26 27  2  0
 20 28  1  1
 28 29  1  0
 29 30  1  0
 30 31  1  0
 31 32  1  0
 32 33  1  0
 33 34  1  0
 34 35  1  0
 35 36  1  0
 27 21  1  0
M  RAD  2   8   2  29   2
M  END
>  <fragInfo>  (1) 
21 22 23 24 25 26 27
1 2 3 4
5
6
7
8
9
10
11
12
13
14
15
16
17 18
19
20
28
29
30
31
32
33
34
35 36


>  <torsionInfo>  (1) 
20 21 16 0
2 5 1 2
5 6 2 3
6 7 3 4
7 8 4 5
7 19 4 15
8 9 5 6
9 10 6 7
10 11 7 8
11 12 8 9
12 13 9 10
13 14 10 11
14 15 11 12
15 16 12 13
16 17 13 14
19 20 15 16
20 28 16 17
28 29 17 18
29 30 18 19
30 31 19 20
31 32 20 21
32 33 21 22
33 34 22 23
34 35 23 24


>  <atomInfo>  (1) 
1  -0.0473893C 
2  0.00975501C 
3  -0.0473893C 
4  -0.0473893C 
5  -0.3094781NA
6  0.02244760C 
7  0.07681813C 
8  0.00546433C 
9  0.00089285C 
10 -0.3163437NA
11 -0.0048782C 
12 -0.0406698C 
13 -0.0520973C 
14 -0.0532590C 
15 -0.0533152C 
16 -0.0535686C 
17 -0.0561716C 
18 -0.0653823C 
19 -0.3541594OA
20 0.13456738C 
21 -0.0044507A 
22 -0.0521557A 
23 -0.0259013A 
24 0.12273221A 
25 -0.2070121F 
26 -0.0259013A 
27 -0.0521557A 
28 -0.2825227NA
29 0.04002219C 
30 0.02711526C 
31 -0.2549763NA
32 -0.2423893NA
33 0.07334589C 
34 -0.2290785NA
35 -0.1956125NA
36 -0.2577272NA


$$$$
