
     RDKit          3D

 31 33  0  0  0  0  0  0  0  0999 V2000
    1.3498    0.7090    1.4749 O   0  0  0  0  0  0  0  0  0  0  0  0
    1.3581   -0.3665    0.8592 C   0  0  0  0  0  0  0  0  0  0  0  0
    0.6784   -1.5680    1.2998 C   0  0  0  0  0  0  0  0  0  0  0  0
   -0.1233   -1.5543    2.5235 C   0  0  0  0  0  0  0  0  0  0  0  0
   -1.2992   -0.7057    2.6626 C   0  0  1  0  0  0  0  0  0  0  0  0
   -1.0739    0.7013    2.5403 C   0  0  0  0  0  0  0  0  0  0  0  0
   -2.0234    1.4545    1.9574 C   0  0  0  0  0  0  0  0  0  0  0  0
   -3.2559    0.8985    1.4519 C   0  0  0  0  0  0  0  0  0  0  0  0
   -4.3218    1.3963    0.8557 C   0  0  0  0  0  0  0  0  0  0  0  0
   -5.2803    0.3360    0.5647 C   0  0  0  0  0  0  0  0  0  0  0  0
   -6.6029    0.4883   -0.0972 C   0  0  0  0  0  0  0  0  0  0  0  0
   -7.5336   -0.2386   -0.4272 C   0  0  0  0  0  0  0  0  0  0  0  0
   -8.6563    0.2878   -1.0507 C   0  0  0  0  0  0  0  0  0  0  0  0
   -8.7869    1.4196   -1.2954 C   0  0  0  0  0  0  0  0  0  0  0  0
  -10.0077    2.5997   -2.0691 Cl  0  0  0  0  0  0  0  0  0  0  0  0
   -7.1919    2.1494   -0.6470 S   0  0  0  0  0  0  0  0  0  0  0  0
   -4.7638   -0.7595    0.9930 N   0  0  0  0  0  0  0  0  0  0  0  0
   -3.4928   -0.5336    1.5714 C   0  0  0  0  0  0  0  0  0  0  0  0
   -2.5410   -1.2647    2.1507 C   0  0  0  0  0  0  0  0  0  0  0  0
    2.1005   -0.4079   -0.3779 N   0  0  0  0  0  0  0  0  0  0  0  0
    2.7807    0.7302   -0.8531 C   0  0  0  0  0  0  0  0  0  0  0  0
    4.0851    0.7279   -1.0313 C   0  0  0  0  0  0  0  0  0  0  0  0
    4.8310   -0.4784   -0.7284 C   0  0  0  0  0  0  0  0  0  0  0  0
    6.1298   -0.5066   -0.8952 C   0  0  0  0  0  0  0  0  0  0  0  0
    6.8117    0.6217   -1.3661 N   0  0  0  0  0  0  0  0  0  0  0  0
    7.0181    0.8235   -2.7701 C   0  0  0  0  0  0  0  0  0  0  0  0
    5.7049    1.0965   -3.4334 C   0  0  0  0  0  0  0  0  0  0  0  0
    6.8618   -1.7217   -0.5886 C   0  0  0  0  0  0  0  0  0  0  0  0
    8.1518   -1.8053   -0.7341 C   0  0  0  0  0  0  0  0  0  0  0  0
    8.9188   -0.6713   -1.2146 C   0  0  0  0  0  0  0  0  0  0  0  0
   10.1741   -0.8444   -1.3260 O   0  0  0  0  0  0  0  0  0  0  0  0
  1  2  2  0
  2  3  1  0
  3  4  1  0
  5  4  1  6
  5  6  1  0
  6  7  2  0
  7  8  1  0
  8  9  2  0
  9 10  1  0
 10 11  1  0
 11 12  2  0
 12 13  1  0
 13 14  2  0
 14 15  1  0
 14 16  1  0
 10 17  2  0
 17 18  1  0
 18 19  2  0
  2 20  1  0
 20 21  1  0
 21 22  2  3
 22 23  1  0
 23 24  2  3
 24 25  1  0
 25 26  1  0
 26 27  1  0
 24 28  1  0
 28 29  2  3
 29 30  1  0
 30 31  2  0
 19  5  1  0
 18  8  1  0
 16 11  1  0
M  END
>  <fragInfo>  (1) 
5 6 7 8 9 10 17 18 19
1 2 20
3
4
11 12 13 14 15 16
21 22
23 24
25
26 27
28 29
30 31


>  <torsionInfo>  (1) 
4 5 3 0
10 11 0 4
2 3 1 2
20 21 1 5
3 4 2 3
22 23 5 6
24 25 6 7
24 28 6 9
25 26 7 8
29 30 9 10


>  <atomInfo>  (1) 
1  -0.2747749OA
2  0.22343877C 
3  0.02767005C 
4  -0.0345416C 
5  -0.0020741C 
6  -0.0768478C 
7  -0.0561598C 
8  0.00171699C 
9  -0.0255323C 
10 0.08158688C 
11 0.05431173A 
12 -0.0403879A 
13 -0.0318389A 
14 0.09350013A 
15 -0.0724695Cl
16 -0.1217186S 
17 -0.2472279NA
18 0.06761568C 
19 -0.0511611C 
20 -0.3326777N 
21 0.00378696C 
22 -0.0440025C 
23 -0.0375174C 
24 0.03412384C 
25 -0.3853225N 
26 0.01180388C 
27 -0.0477851C 
28 -0.0357267C 
29 -0.0202012C 
30 0.14241182C 
31 -0.2985626OA


$$$$
