
     RDKit          3D

 25 27  0  0  0  0  0  0  0  0999 V2000
   -6.1196   -1.5540   -1.0407 C   0  0  0  0  0  0  0  0  0  0  0  0
   -4.7594   -1.3423   -1.4093 O   0  0  0  0  0  0  0  0  0  0  0  0
   -3.7648   -2.1106   -0.8228 C   0  0  0  0  0  0  0  0  0  0  0  0
   -2.5964   -1.6312   -0.4601 C   0  0  0  0  0  0  0  0  0  0  0  0
   -2.3491   -0.2150   -0.6937 C   0  0  0  0  0  0  0  0  0  0  0  0
   -1.2159    0.3792   -0.3724 C   0  0  0  0  0  0  0  0  0  0  0  0
   -1.1126    1.8243   -0.6716 C   0  0  0  0  0  0  0  0  0  0  0  0
   -0.8976    2.6349    0.5984 C   0  0  1  0  0  0  0  0  0  0  0  0
   -2.0600    2.5068    1.5377 C   0  0  0  0  0  0  0  0  0  0  0  0
    0.3979    2.2904    1.2646 C   0  0  0  0  0  3  0  0  0  0  0  0
    1.4768    3.2806    1.0160 C   0  0  0  0  0  0  0  0  0  0  0  0
    2.3687    3.1685    0.0391 C   0  0  0  0  0  0  0  0  0  0  0  0
    2.4192    2.0497   -0.9383 C   0  0  2  0  0  0  0  0  0  0  0  0
    1.1900    1.2557   -0.8430 C   0  0  0  0  0  0  0  0  0  0  0  0
    1.2355   -0.0585   -0.1861 C   0  0  1  0  0  0  0  0  0  0  0  0
   -0.1661   -0.4372    0.2479 C   0  0  1  0  0  0  0  0  0  0  0  0
   -0.2875   -0.4770    1.7317 C   0  0  0  0  0  0  0  0  0  0  0  0
    0.5560   -1.5293    2.3666 C   0  0  0  0  0  3  0  0  0  0  0  0
    0.5166   -2.8557    1.6927 C   0  0  0  0  0  0  0  0  0  0  0  0
    1.4903   -3.0018    0.6375 N   0  0  0  0  0  0  0  0  0  0  0  0
    1.0735   -2.4534   -0.6102 C   0  0  0  0  0  0  0  0  0  0  0  0
    1.7513   -1.1894   -1.0079 C   0  0  2  0  0  0  0  0  0  0  0  0
    3.1286   -1.2787   -1.0512 O   0  0  0  0  0  0  0  0  0  0  0  0
    3.7550   -0.4352   -0.1422 C   0  0  0  0  0  3  0  0  0  0  0  0
    3.9697    1.1791   -0.8826 S   0  0  0  0  0  0  0  0  0  0  0  0
  1  2  1  0
  2  3  1  0
  3  4  2  3
  4  5  1  0
  5  6  2  3
  6  7  1  0
  7  8  1  0
  8  9  1  1
  8 10  1  0
 10 11  1  0
 11 12  2  3
 12 13  1  0
 13 14  1  0
 15 14  1  6
  6 16  1  0
 16 17  1  1
 17 18  1  0
 18 19  1  0
 19 20  1  0
 20 21  1  0
 22 21  1  1
 22 23  1  0
 23 24  1  0
 24 25  1  0
 13 25  1  1
 16 15  1  0
 22 15  1  0
M  RAD  3  10   2  18   2  24   2
M  END
>  <fragInfo>  (1) 
5 6 7 8 9 10 11 12 13 14 15 16 17 18 19 20 21 22 23 24 25
1 2
3 4


>  <torsionInfo>  (1) 
4 5 2 0
2 3 1 2


>  <atomInfo>  (1) 
1  0.07660055C 
2  -0.5043678OA
3  0.08240876C 
4  -0.0275878C 
5  -0.0597151C 
6  -0.0663258C 
7  -0.0282546C 
8  -0.0336355C 
9  -0.0616175C 
10 -0.0138659C 
11 -0.0834413C 
12 -0.0751313C 
13 0.02572114C 
14 -0.0316895C 
15 -0.0057286C 
16 -0.0142657C 
17 -0.0419368C 
18 -0.0242021C 
19 -0.0016078C 
20 -0.3138533NA
21 0.02190108C 
22 0.07503281C 
23 -0.3590268OA
24 0.13935133C 
25 -0.1193642SA


$$$$
