
     RDKit          3D

 32 34  0  0  0  0  0  0  0  0999 V2000
    0.1424   -1.2130   -1.8819 C   0  0  0  0  0  0  0  0  0  0  0  0
    1.1365   -1.8587   -2.4483 C   0  0  0  0  0  0  0  0  0  0  0  0
    1.6419   -1.3524   -3.7543 C   0  0  0  0  0  0  0  0  0  0  0  0
    1.7819   -3.0669   -1.8533 C   0  0  0  0  0  3  0  0  0  0  0  0
    2.0370   -2.8468   -0.3629 C   0  0  0  0  0  0  0  0  0  0  0  0
    1.9711   -1.3398   -0.1316 C   0  0  0  0  0  0  0  0  0  0  0  0
    1.5479   -0.9833    1.2497 C   0  0  0  0  0  3  0  0  0  0  0  0
    2.6297   -0.1747    1.9355 C   0  0  0  0  0  0  0  0  0  0  0  0
    2.8949    1.1005    1.1613 C   0  0  0  0  0  0  0  0  0  0  0  0
    3.3403    0.7205   -0.2235 C   0  0  0  0  0  0  0  0  0  0  0  0
    4.5958   -0.1110   -0.2281 C   0  0  0  0  0  0  0  0  0  0  0  0
    5.7087    0.6950    0.4279 C   0  0  0  0  0  3  0  0  0  0  0  0
    5.9294    1.9765   -0.3556 C   0  0  0  0  0  0  0  0  0  0  0  0
    0.2735   -0.1913    1.3192 C   0  0  2  0  0  0  0  0  0  0  0  0
   -0.4818   -0.4395    2.6037 C   0  0  0  0  0  0  0  0  0  0  0  0
   -0.4848    0.8627    3.3787 C   0  0  2  0  0  0  0  0  0  0  0  0
   -0.8176    0.5174    4.8185 C   0  0  0  0  0  0  0  0  0  0  0  0
   -1.6310    1.6960    2.7996 C   0  0  0  0  0  3  0  0  0  0  0  0
   -1.1138    3.0361    2.2857 C   0  0  0  0  0  3  0  0  0  0  0  0
   -2.1544    3.5505    1.3117 C   0  0  0  0  0  3  0  0  0  0  0  0
   -3.0866    2.4347    0.8685 C   0  0  0  0  0  0  0  0  0  0  0  0
   -3.4661    2.6970   -0.5551 C   0  0  0  0  0  0  0  0  0  0  0  0
   -4.5551    1.7672   -1.0500 C   0  0  0  0  0  3  0  0  0  0  0  0
   -4.0224    0.5792   -1.7828 C   0  0  0  0  0  0  0  0  0  0  0  0
   -3.3828   -0.4321   -0.8513 C   0  0  0  0  0  0  0  0  0  0  0  0
   -3.1754   -1.7551   -1.5137 C   0  0  1  0  0  0  0  0  0  0  0  0
   -2.9582   -1.6557   -2.9905 C   0  0  0  0  0  0  0  0  0  0  0  0
   -1.8569   -2.7218   -0.7675 S   0  0  0  0  0  0  0  0  0  0  0  0
   -0.3795   -1.7144   -0.5593 C   0  0  2  0  0  0  0  0  0  0  0  0
   -0.6513   -0.4359    0.1684 C   0  0  2  0  0  0  0  0  0  0  0  0
   -0.7132    0.6739   -0.8235 C   0  0  0  0  0  0  0  0  0  0  0  0
   -0.7003   -0.0150   -2.1957 C   0  0  0  0  0  3  0  0  0  0  0  0
  1  2  2  3
  2  3  1  0
  2  4  1  0
  4  5  1  0
  5  6  1  0
  6  7  1  0
  7  8  1  0
  8  9  1  0
  9 10  1  0
 10 11  1  0
 11 12  1  0
 12 13  1  0
  7 14  1  0
 14 15  1  1
 15 16  1  0
 16 17  1  1
 16 18  1  0
 18 19  1  0
 19 20  1  0
 20 21  1  0
 21 22  1  0
 22 23  1  0
 23 24  1  0
 24 25  1  0
 25 26  1  0
 26 27  1  6
 26 28  1  0
 29 28  1  6
 29 30  1  0
 30 31  1  6
 31 32  1  0
 29  1  1  0
 32  1  1  0
 30 14  1  0
M  RAD  8   4   2   7   2  12   2  18   2  19   2  20   2  23   2  32   2
M  END
>  <fragInfo>  (1) 
1 2 3 4 5 6 7 14 15 16 17 18 19 20 21 22 23 24 25 26 27 28 29 30 31 32
8
9
10
11
12 13


>  <torsionInfo>  (1) 
7 8 0 1
8 9 1 2
9 10 2 3
10 11 3 4
11 12 4 5


>  <atomInfo>  (1) 
1  -0.0539616C 
2  -0.0689923C 
3  -0.0433122C 
4  -0.0136931C 
5  -0.0455587C 
6  -0.0461854C 
7  -0.0206423C 
8  -0.0467769C 
9  -0.0527358C 
10 -0.0530214C 
11 -0.0504566C 
12 -0.0416982C 
13 -0.0622548C 
14 -0.0307087C 
15 -0.0466998C 
16 -0.0405692C 
17 -0.0622127C 
18 -0.0320522C 
19 -0.0315257C 
20 -0.0348753C 
21 -0.0496123C 
22 -0.0498976C 
23 -0.0385337C 
24 -0.0491391C 
25 -0.0412579C 
26 0.00249059C 
27 -0.0532844C 
28 -0.1506770SA
29 0.02955620C 
30 -0.0216510C 
31 -0.0415507C 
32 -0.0119839C 


$$$$
