
     RDKit          2D

 33 37  0  0  0  0  0  0  0  0999 V2000
   -0.1656   -5.0425    0.0000 C   0  0  0  0  0  0  0  0  0  0  0  0
   -1.0287   -3.8158    0.0000 C   0  0  0  0  0  0  0  0  0  0  0  0
   -2.4785   -3.4308    0.0000 O   0  0  0  0  0  0  0  0  0  0  0  0
    0.0520   -2.6268    0.0000 N   0  0  0  0  0  0  0  0  0  0  0  0
    0.7500   -1.2990    0.0000 C   0  0  0  0  0  0  0  0  0  0  0  0
    1.5000    0.0000    0.0000 C   0  0  0  0  0  0  0  0  0  0  0  0
    0.7500    1.2990    0.0000 C   0  0  0  0  0  0  0  0  0  0  0  0
   -0.7500    1.2990    0.0000 C   0  0  0  0  0  0  0  0  0  0  0  0
   -1.5000    0.0000    0.0000 C   0  0  0  0  0  0  0  0  0  0  0  0
   -0.7500   -1.2990    0.0000 C   0  0  0  0  0  0  0  0  0  0  0  0
   -1.9370   -0.7706    0.0000 C   0  0  0  0  0  0  0  0  0  0  0  0
   -1.7803   -0.8403    0.0000 C   0  0  0  0  0  0  0  0  0  0  0  0
   -2.9672   -0.3119    0.0000 N   0  0  0  0  0  0  0  0  0  0  0  0
   -2.5603   -1.9330    0.0000 N   0  0  0  0  0  0  0  0  0  0  0  0
   -1.4212   -2.9089    0.0000 N   0  0  0  0  0  0  0  0  0  0  0  0
   -1.8062   -4.3587    0.0000 N   0  0  0  0  0  0  0  0  0  0  0  0
   -0.7432   -5.4170    0.0000 C   0  0  0  0  0  0  0  0  0  0  0  0
    0.7049   -5.0255    0.0000 O   0  0  0  0  0  0  0  0  0  0  0  0
   -1.1282   -6.8667    0.0000 N   0  0  0  0  0  0  0  0  0  0  0  0
   -0.0652   -7.9250    0.0000 N   0  0  0  0  0  0  0  0  0  0  0  0
   -0.4502   -9.3748    0.0000 C   0  0  0  0  0  0  0  0  0  0  0  0
   -1.8982   -9.7662    0.0000 O   0  0  0  0  0  0  0  0  0  0  0  0
    0.6129  -10.4331    0.0000 N   0  0  0  0  0  0  0  0  0  0  0  0
    0.2279  -11.8828    0.0000 C   0  0  0  0  0  0  0  0  0  0  0  0
   -1.2202  -12.2743    0.0000 C   0  0  0  0  0  0  0  0  0  0  0  0
   -1.6052  -13.7240    0.0000 C   0  0  0  0  0  0  0  0  0  0  0  0
   -0.5422  -14.7823    0.0000 C   0  0  0  0  0  0  0  0  0  0  0  0
    0.9059  -14.3908    0.0000 C   0  0  0  0  0  0  0  0  0  0  0  0
    1.2909  -12.9411    0.0000 C   0  0  0  0  0  0  0  0  0  0  0  0
    2.7389  -12.5496    0.0000 C   0  0  0  0  0  0  0  0  0  0  0  0
    3.8019  -13.6079    0.0000 C   0  0  0  0  0  0  0  0  0  0  0  0
    5.2499  -13.2165    0.0000 N   0  0  0  0  0  0  0  0  0  0  0  0
    6.3129  -14.2748    0.0000 N   0  0  0  0  0  0  0  0  0  0  0  0
  1  2  2  0
  2  3  1  0
  2  4  1  0
  4  5  1  0
  5  6  2  0
  6  7  1  0
  7  8  2  0
  8  9  1  0
  9 10  2  0
 10 11  1  0
 11 12  1  0
 12 13  1  0
 13 14  1  0
 14 15  1  0
 15 16  1  0
 16 17  1  0
 17 18  2  0
 17 19  1  0
 19 20  2  3
 20 21  1  0
 21 22  2  0
 21 23  1  0
 23 24  1  0
 24 25  2  0
 25 26  1  0
 26 27  2  0
 27 28  1  0
 28 29  2  0
 29 30  1  0
 30 31  1  0
 31 32  1  0
 32 33  2  0
 14  3  1  0
 15  4  1  0
 10  5  1  0
 13  9  1  0
 29 24  1  0
M  END
>  <fragInfo>  (1) 
1 2 3 4 5 6 7 8 9 10 11 12 13 14 15
16 17 18
19 20
21 22 23
24 25 26 27 28 29
30
31
32 33


>  <torsionInfo>  (1) 
15 16 0 1
17 19 1 2
20 21 2 3
23 24 3 4
29 30 4 5
30 31 5 6
31 32 6 7


>  <atomInfo>  (1) 
1  -0.0342650C 
2  0.23334886C 
3  -0.3482988OA
4  -0.2043907N 
5  0.07002369A 
6  -0.0362074A 
7  -0.0579990A 
8  -0.0367354A 
9  0.06234206A 
10 0.00427342A 
11 -0.0041632C 
12 0.04361380C 
13 -0.2553891N 
14 0.06673990NA
15 0.00655123NA
16 -0.2300536N 
17 0.37647575C 
18 -0.2429129OA
19 -0.0842504NA
20 -0.0851762NA
21 0.36370554C 
22 -0.2441444OA
23 -0.3044984N 
24 0.04576901A 
25 -0.0381883A 
26 -0.0601798A 
27 -0.0618415A 
28 -0.0568999A 
29 -0.0224158A 
30 -0.0042865C 
31 0.06370008C 
32 -0.1967983NA
33 -0.2098475NA


$$$$
