
     RDKit          3D

 80 84  0  0  0  0  0  0  0  0999 V2000
   11.7560    0.8505    2.1594 C   0  0  0  0  0  0  0  0  0  0  0  0
   11.0292    2.0094    1.5086 C   0  0  1  0  0  0  0  0  0  0  0  0
   12.0169    2.9671    0.8765 C   0  0  0  0  0  0  0  0  0  0  0  0
   11.2810    4.0726    0.1861 C   0  0  2  0  0  0  0  0  0  0  0  0
   10.6989    4.9810    1.0663 O   0  0  0  0  0  0  0  0  0  0  0  0
   10.2931    3.5952   -0.8287 C   0  0  2  0  0  0  0  0  0  0  0  0
    9.0115    3.8490   -0.3257 O   0  0  0  0  0  0  0  0  0  0  0  0
   10.4163    2.0835   -0.9249 C   0  0  1  0  0  0  0  0  0  0  0  0
   11.6438    1.7004   -1.4180 O   0  0  0  0  0  0  0  0  0  0  0  0
   10.0975    1.5218    0.4404 C   0  0  1  0  0  0  0  0  0  0  0  0
   10.0032    0.0950    0.4192 N   0  0  0  0  0  0  0  0  0  0  0  0
    9.1807   -0.3262   -0.6642 C   0  0  0  0  0  3  0  0  0  0  0  0
    7.7541    0.0942   -0.5580 C   0  0  1  0  0  0  0  0  0  0  0  0
    6.9940   -0.3029   -1.6532 O   0  0  0  0  0  0  0  0  0  0  0  0
    7.7112   -1.0488   -2.5621 C   0  0  0  0  0  0  0  0  0  0  0  0
    8.4987   -2.0274   -2.0016 O   0  0  0  0  0  0  0  0  0  0  0  0
    7.8324   -2.8973   -1.1750 C   0  0  1  0  0  0  0  0  0  0  0  0
    8.6215   -3.4976   -0.2271 O   0  0  0  0  0  0  0  0  0  0  0  0
    6.5611   -2.3063   -0.6557 C   0  0  1  0  0  0  0  0  0  0  0  0
    5.5379   -3.2616   -0.7821 O   0  0  0  0  0  0  0  0  0  0  0  0
    6.6487   -1.7244    0.7175 C   0  0  2  0  0  0  0  0  0  0  0  0
    5.4395   -1.9206    1.3726 O   0  0  0  0  0  0  0  0  0  0  0  0
    7.1264   -0.3195    0.7488 C   0  0  1  0  0  0  0  0  0  0  0  0
    8.0414   -0.0357    1.7572 O   0  0  0  0  0  0  0  0  0  0  0  0
    7.4258    0.2124    2.9380 N   0  0  0  0  0  0  0  0  0  0  0  0
    7.0874   -1.0285    3.4859 N   0  0  0  0  0  0  0  0  0  0  0  0
    5.6876   -1.0853    3.7723 C   0  0  2  0  0  0  0  0  0  0  0  0
    5.1726   -2.4408    3.8051 N   0  0  0  0  0  0  0  0  0  0  0  0
    4.9345   -0.2151    2.9306 N   0  0  0  0  0  0  0  0  0  0  0  0
    4.7547   -0.7296    1.5860 C   0  0  2  0  0  0  0  0  0  0  0  0
    3.3841   -0.9156    1.4102 O   0  0  0  0  0  0  0  0  0  0  0  0
    3.0797   -1.3559    0.1320 C   0  0  2  0  0  0  0  0  0  0  0  0
    3.5667   -0.3439   -0.7899 N   0  0  0  0  0  0  0  0  0  0  0  0
    1.5899   -1.5772   -0.0444 C   0  0  2  0  0  0  0  0  0  0  0  0
    1.2633   -2.0597   -1.4307 C   0  0  0  0  0  0  0  0  0  0  0  0
    2.0442   -3.0914   -1.8832 O   0  0  0  0  0  0  0  0  0  0  0  0
    2.3214   -3.1168   -3.5838 S   0  0  0  0  0  0  0  0  0  0  0  0
    2.6488   -1.7832   -4.4413 C   0  0  0  0  0  0  0  0  0  0  0  0
    2.7186   -0.5526   -3.8210 O   0  0  0  0  0  0  0  0  0  0  0  0
    1.5486    0.0798   -3.3642 C   0  0  0  0  0  0  0  0  0  0  0  0
    1.8571    1.3744   -2.8862 O   0  0  0  0  0  0  0  0  0  0  0  0
    1.5461    1.4478   -1.5133 C   0  0  0  0  0  3  0  0  0  0  0  0
    0.5911    0.3500   -1.1683 C   0  0  0  0  0  0  0  0  0  0  0  0
    0.8343   -0.2763    0.1788 C   0  0  1  0  0  0  0  0  0  0  0  0
   -0.4433   -0.5846    0.9037 C   0  0  2  0  0  0  0  0  0  0  0  0
   -0.1752   -1.1808    2.1219 O   0  0  0  0  0  0  0  0  0  0  0  0
   -1.2660   -1.4377    0.1115 N   0  0  0  0  0  0  0  0  0  0  0  0
   -2.4208   -1.8077    0.6357 O   0  0  0  0  0  0  0  0  0  0  0  0
   -1.2616   -1.1172   -1.1781 O   0  0  0  0  0  0  0  0  0  0  0  0
   -2.2094   -0.2533   -1.5959 C   0  0  0  0  0  3  0  0  0  0  0  0
   -3.2689    0.0672   -0.6003 C   0  0  1  0  0  0  0  0  0  0  0  0
   -2.8089    0.7571    0.5252 O   0  0  0  0  0  0  0  0  0  0  0  0
   -4.3128    0.9101   -1.3183 C   0  0  0  0  0  3  0  0  0  0  0  0
   -5.3830    1.1197   -0.4399 O   0  0  0  0  0  0  0  0  0  0  0  0
   -6.3794    0.2888   -0.8863 N   0  0  0  0  0  0  0  0  0  0  0  0
   -6.2055   -1.0233   -0.2529 C   0  0  2  0  0  0  0  0  0  0  0  0
   -7.2758   -1.9287   -0.8106 C   0  0  0  0  0  0  0  0  0  0  0  0
   -7.9707   -2.6338    0.1465 O   0  0  0  0  0  0  0  0  0  0  0  0
   -9.1437   -1.9800    0.4858 C   0  0  0  0  0  0  0  0  0  0  0  0
   -9.9789   -1.8008   -0.7386 C   0  0  2  0  0  0  0  0  0  0  0  0
   -9.2148   -1.2378   -1.8253 N   0  0  0  0  0  0  0  0  0  0  0  0
  -11.1685   -1.0077   -0.4672 N   0  0  0  0  0  0  0  0  0  0  0  0
  -12.0474   -1.8042    0.2114 O   0  0  0  0  0  0  0  0  0  0  0  0
  -11.8061   -3.1378   -0.1068 C   0  0  0  0  0  0  0  0  0  0  0  0
  -12.7932   -3.9963    0.6584 C   0  0  0  0  0  2  0  0  0  0  0  0
   -6.4975   -0.8166    1.2359 C   0  0  0  0  0  0  0  0  0  0  0  0
   -7.5683    0.1540    1.3846 N   0  0  0  0  0  0  0  0  0  0  0  0
   -7.1282    1.4146    1.5177 O   0  0  0  0  0  0  0  0  0  0  0  0
   -8.0514    2.3518    1.1195 C   0  0  0  0  0  0  0  0  0  0  0  0
   -9.3960    1.8211    1.1115 N   0  0  0  0  0  0  0  0  0  0  0  0
   -9.5509    0.7645    0.1132 C   0  0  2  0  0  0  0  0  0  0  0  0
   -9.4718    1.3718   -1.1322 O   0  0  0  0  0  0  0  0  0  0  0  0
  -10.9048    0.1476    0.3336 C   0  0  1  0  0  0  0  0  0  0  0  0
  -11.8993    1.1791    0.0364 N   0  0  0  0  0  0  0  0  0  0  0  0
  -11.6704    1.6450   -1.2325 O   0  0  0  0  0  0  0  0  0  0  0  0
  -11.7539    2.2919    0.9545 C   0  0  0  0  0  3  0  0  0  0  0  0
  -12.2653    3.4670    0.2709 N   0  0  0  0  0  0  0  0  0  0  0  0
  -11.3347    4.4969    0.4693 N   0  0  0  0  0  0  0  0  0  0  0  0
  -12.0413    5.7078    0.4027 N   0  0  0  0  0  0  0  0  0  0  0  0
  -11.1838    6.7483   -0.0141 N   0  0  0  0  0  0  0  0  0  0  0  0
  2  1  1  6
  2  3  1  0
  3  4  1  0
  4  5  1  1
  4  6  1  0
  6  7  1  1
  6  8  1  0
  8  9  1  1
  8 10  1  0
 10 11  1  6
 11 12  1  0
 13 12  1  6
 13 14  1  0
 14 15  1  0
 15 16  1  0
 16 17  1  0
 17 18  1  1
 17 19  1  0
 19 20  1  1
 19 21  1  0
 21 22  1  6
 21 23  1  0
 23 24  1  1
 24 25  1  0
 25 26  1  0
 26 27  1  0
 27 28  1  6
 27 29  1  0
 29 30  1  0
 30 31  1  1
 31 32  1  0
 32 33  1  6
 32 34  1  0
 34 35  1  6
 35 36  1  0
 36 37  1  0
 37 38  2  3
 38 39  1  0
 39 40  1  0
 40 41  1  0
 41 42  1  0
 42 43  1  0
 44 43  1  6
 44 45  1  0
 45 46  1  1
 45 47  1  0
 47 48  1  0
 47 49  1  0
 49 50  1  0
 50 51  1  0
 51 52  1  1
 51 53  1  0
 53 54  1  0
 54 55  1  0
 56 55  1  6
 56 57  1  0
 57 58  1  0
 58 59  1  0
 59 60  1  0
 60 61  1  6
 60 62  1  0
 62 63  1  0
 63 64  1  0
 64 65  1  0
 56 66  1  0
 66 67  1  0
 67 68  1  0
 68 69  1  0
 69 70  1  0
 70 71  1  0
 71 72  1  6
 71 73  1  0
 73 74  1  6
 74 75  1  0
 74 76  1  0
 76 77  1  0
 77 78  1  0
 78 79  1  0
 79 80  1  0
 10  2  1  0
 23 13  1  0
 30 22  1  0
 44 34  1  0
 73 62  1  0
M  RAD  6  12   2  42   2  50   2  53   2  65   3  76   2
M  END
>  <fragInfo>  (1) 
13 14 15 16 17 18 19 20 21 22 23 24 25 26 27 28 29 30
1 2 3 4 5 6 7 8 9 10
11
12
31
32 33
34 35 36 37 38 39 40 41 42 43 44
45 46
47 48
49
50
51 52
53
54
55
56 57 58 59 60 61 62 66 67 68 69 70 71 72 73
63
64 65
74 75
76
77
78
79 80


>  <torsionInfo>  (1) 
12 13 3 0
30 31 0 4
10 11 1 2
11 12 2 3
31 32 4 5
32 34 5 6
44 45 6 7
45 47 7 8
47 49 8 9
49 50 9 10
50 51 10 11
51 53 11 12
53 54 12 13
54 55 13 14
55 56 14 15
62 63 15 16
73 74 15 18
63 64 16 17
74 76 18 19
76 77 19 20
77 78 20 21
78 79 21 22


>  <atomInfo>  (1) 
1  -0.0608233C 
2  -0.0236268C 
3  -0.0201755C 
4  0.08280077C 
5  -0.3903155OA
6  0.10722524C 
7  -0.3876533OA
8  0.09793081C 
9  -0.3886791OA
10 0.03848797C 
11 -0.3042262NA
12 0.05448231C 
13 0.10813527C 
14 -0.3474733OA
15 0.15010866C 
16 -0.3239498OA
17 0.18580491C 
18 -0.3656662OA
19 0.13369430C 
20 -0.3849754OA
21 0.12368742C 
22 -0.3304536OA
23 0.13736760C 
24 -0.2779448OA
25 -0.1340396NA
26 -0.2040190NA
27 0.12737589C 
28 -0.3023877NA
29 -0.2394814NA
30 0.21980396C 
31 -0.3208717OA
32 0.11528526C 
33 -0.3056475NA
34 0.03045027C 
35 0.07186385C 
36 -0.3069118OA
37 -0.0982592S 
38 0.14389915C 
39 -0.4641075OA
40 0.18933055C 
41 -0.3391956OA
42 0.08818880C 
43 -0.0166882C 
44 0.01450451C 
45 0.15977987C 
46 -0.3732599OA
47 -0.0383225NA
48 -0.2872911OA
49 -0.2629129OA
50 0.14140293C 
51 0.11590890C 
52 -0.3873012OA
53 0.13825677C 
54 -0.2923108OA
55 -0.1952338NA
56 0.07032567C 
57 0.06569195C 
58 -0.3765855OA
59 0.07746138C 
60 0.10755549C 
61 -0.3119165NA
62 -0.1464153NA
63 -0.2952922OA
64 0.07216839C 
65 -0.0048771C 
66 0.04096153C 
67 -0.1993035NA
68 -0.2861802OA
69 0.12038074C 
70 -0.2651803NA
71 0.13992713C 
72 -0.3752392OA
73 0.15319186C 
74 -0.1471883NA
75 -0.3105157OA
76 0.13200145C 
77 -0.2204470NA
78 -0.1788724NA
79 -0.1829640NA
80 -0.2566404NA


$$$$
