
     RDKit          3D

 24 25  0  0  0  0  0  0  0  0999 V2000
    1.5340   -1.2947   -1.6403 C   0  0  0  0  0  0  0  0  0  0  0  0
    2.4626   -0.8711   -0.5110 C   0  0  1  0  0  0  0  0  0  0  0  0
    3.3871    0.1817   -1.1090 C   0  0  0  0  0  0  0  0  0  0  0  0
    4.3495    0.6804   -0.0851 C   0  0  2  0  0  0  0  0  0  0  0  0
    5.6686    0.3055   -0.3371 O   0  0  0  0  0  0  0  0  0  0  0  0
    3.9044    0.2266    1.3108 C   0  0  2  0  0  0  0  0  0  0  0  0
    3.8852   -1.1731    1.2523 O   0  0  0  0  0  0  0  0  0  0  0  0
    2.4387    0.6728    1.4058 C   0  0  1  0  0  0  0  0  0  0  0  0
    2.3768    1.9855    0.9605 O   0  0  0  0  0  0  0  0  0  0  0  0
    1.6174   -0.2238    0.5746 C   0  0  1  0  0  0  0  0  0  0  0  0
    0.3977    0.3175    0.0477 N   0  0  0  0  0  0  0  0  0  0  0  0
   -0.4848   -0.6901   -0.4568 C   0  0  1  0  0  0  0  0  0  0  0  0
   -0.9983   -1.5913    0.6762 C   0  0  0  0  0  0  0  0  0  0  0  0
   -2.0998   -0.8727    1.4357 C   0  0  0  0  0  3  0  0  0  0  0  0
   -2.1809   -1.4012    2.7037 O   0  0  0  0  0  0  0  0  0  0  0  0
   -3.4106   -0.8291    0.7002 C   0  0  1  0  0  0  0  0  0  0  0  0
   -4.4917   -1.0306    1.5648 O   0  0  0  0  0  0  0  0  0  0  0  0
   -3.6362    0.5131    0.0436 C   0  0  1  0  0  0  0  0  0  0  0  0
   -4.3528    1.4087    0.7901 O   0  0  0  0  0  0  0  0  0  0  0  0
   -2.2974    1.0141   -0.4377 C   0  0  2  0  0  0  0  0  0  0  0  0
   -2.3438    2.1703   -1.1774 O   0  0  0  0  0  0  0  0  0  0  0  0
   -1.6606   -0.1439   -1.1648 C   0  0  1  0  0  0  0  0  0  0  0  0
   -1.4707    0.0818   -2.5175 O   0  0  0  0  0  0  0  0  0  0  0  0
   -2.5945    0.5636   -3.0034 O   0  0  0  0  0  0  0  0  0  0  0  0
  2  1  1  6
  2  3  1  0
  3  4  1  0
  4  5  1  6
  4  6  1  0
  6  7  1  6
  6  8  1  0
  8  9  1  6
  8 10  1  0
 10 11  1  6
 12 11  1  1
 12 13  1  0
 13 14  1  0
 14 15  1  0
 14 16  1  0
 16 17  1  1
 16 18  1  0
 18 19  1  1
 18 20  1  0
 20 21  1  6
 20 22  1  0
 22 23  1  6
 23 24  1  0
 10  2  1  0
 22 12  1  0
M  RAD  1  14   2
M  END
>  <fragInfo>  (1) 
12 13 14 15 16 17 18 19 20 21 22
1 2 3 4 5 6 7 8 9 10
11
23 24


>  <torsionInfo>  (1) 
11 12 2 0
22 23 0 3
10 11 1 2


>  <atomInfo>  (1) 
1  -0.0608233C 
2  -0.0236278C 
3  -0.0201755C 
4  0.08280077C 
5  -0.3903155OA
6  0.10722523C 
7  -0.3876533OA
8  0.09792987C 
9  -0.3886791OA
10 0.03843588C 
11 -0.3053970NA
12 0.04221070C 
13 -0.0002503C 
14 0.12591922C 
15 -0.3838736OA
16 0.11414499C 
17 -0.3871773OA
18 0.11138303C 
19 -0.3874834OA
20 0.11334702C 
21 -0.3874005OA
22 0.13641493C 
23 -0.2315764OA
24 -0.2513804OA


$$$$
