
     RDKit          3D

 22 23  0  0  0  0  0  0  0  0999 V2000
   -2.7477    3.0403    2.6558 C   0  0  0  0  0  0  0  0  0  0  0  0
   -1.6158    2.1929    2.6858 O   0  0  0  0  0  0  0  0  0  0  0  0
   -1.2798    1.3008    1.7028 C   0  0  0  0  0  0  0  0  0  0  0  0
   -2.1210    0.4842    1.1162 C   0  0  0  0  0  0  0  0  0  0  0  0
   -1.6840   -0.4258    0.0877 C   0  0  0  0  0  0  0  0  0  0  0  0
   -0.3668   -0.4312   -0.2769 C   0  0  0  0  0  0  0  0  0  0  0  0
    0.5407    0.4401    0.3463 N   0  0  0  0  0  0  0  0  0  0  0  0
    1.9263    0.5010    0.0293 C   0  0  0  0  0  0  0  0  0  0  0  0
    2.4790   -0.3134   -0.9353 C   0  0  0  0  0  0  0  0  0  0  0  0
    3.8146   -0.2396   -1.2257 C   0  0  0  0  0  0  0  0  0  0  0  0
    4.6257    0.6443   -0.5637 C   0  0  0  0  0  0  0  0  0  0  0  0
    6.4707    0.7179   -0.9934 Br  0  0  0  0  0  0  0  0  0  0  0  0
    4.1131    1.4712    0.4023 C   0  0  0  0  0  0  0  0  0  0  0  0
    2.7462    1.3885    0.6924 C   0  0  0  0  0  0  0  0  0  0  0  0
    2.1741    2.1731    1.6324 F   0  0  0  0  0  0  0  0  0  0  0  0
    0.0467   -1.2734   -1.2313 N   0  0  0  0  0  0  0  0  0  0  0  0
   -0.8170   -2.1275   -1.8493 C   0  0  0  0  0  0  0  0  0  0  0  0
   -2.1397   -2.1227   -1.4837 C   0  0  0  0  0  0  0  0  0  0  0  0
   -2.6107   -1.2688   -0.5020 C   0  0  0  0  0  0  0  0  0  0  0  0
   -4.0033   -1.2325   -0.0860 C   0  0  0  0  0  0  0  0  0  0  0  0
   -4.9098   -2.0096   -0.6151 C   0  0  0  0  0  0  0  0  0  0  0  0
   -4.6414   -2.9097   -1.5876 F   0  0  0  0  0  0  0  0  0  0  0  0
  1  2  1  0
  2  3  1  0
  3  4  2  3
  4  5  1  0
  5  6  2  0
  6  7  1  0
  7  8  1  0
  8  9  2  0
  9 10  1  0
 10 11  2  0
 11 12  1  0
 11 13  1  0
 13 14  2  0
 14 15  1  0
  6 16  1  0
 16 17  2  0
 17 18  1  0
 18 19  2  0
 19 20  1  0
 20 21  2  3
 21 22  1  0
 19  5  1  0
 14  8  1  0
M  END
>  <fragInfo>  (1) 
8 9 10 11 12 13 14 15
1 2
3 4
5 6 16 17 18 19
7
20 21 22


>  <torsionInfo>  (1) 
7 8 4 0
2 3 1 2
4 5 2 3
6 7 3 4
19 20 3 5


>  <atomInfo>  (1) 
1  0.07660113C 
2  -0.5043426OA
3  0.08316636C 
4  -0.0159607C 
5  0.02759069A 
6  0.13790028A 
7  -0.3373277N 
8  0.07596214A 
9  -0.0344281A 
10 -0.0456991A 
11 0.02054128A 
12 -0.0507274Br
13 -0.0098810A 
14 0.14729492A 
15 -0.2046615F 
16 -0.2385028NA
17 0.02987006A 
18 -0.0356833A 
19 -0.0107601A 
20 -0.0257836C 
21 0.08726395C 
22 -0.2155197F 


$$$$
