
     RDKit          3D

 26 26  0  0  0  0  0  0  0  0999 V2000
   -5.1478    0.8406   -0.3226 C   0  0  0  0  0  0  0  0  0  0  0  0
   -4.2160   -0.0202   -1.1113 C   0  0  0  0  0  3  0  0  0  0  0  0
   -2.7650    0.1405   -0.7127 C   0  0  1  0  0  0  0  0  0  0  0  0
   -2.3665    1.5617   -0.9251 C   0  0  2  0  0  0  0  0  0  0  0  0
   -1.1103    1.5455   -1.5757 O   0  0  0  0  0  0  0  0  0  0  0  0
   -2.2498    2.3995    0.2754 C   0  0  2  0  0  0  0  0  0  0  0  0
   -0.9352    2.7685    0.5591 O   0  0  0  0  0  0  0  0  0  0  0  0
   -2.9097    1.9184    1.5116 C   0  0  1  0  0  0  0  0  0  0  0  0
   -3.8805    2.8364    1.9063 O   0  0  0  0  0  0  0  0  0  0  0  0
   -3.5100    0.6790    1.4199 O   0  0  0  0  0  0  0  0  0  0  0  0
   -2.6358   -0.1602    0.7452 C   0  0  1  0  0  0  0  0  0  0  0  0
   -2.7773   -1.5955    1.1040 C   0  0  0  0  0  3  0  0  0  0  0  0
   -1.6959   -2.3742    0.3847 C   0  0  0  0  0  0  0  0  0  0  0  0
   -0.3142   -1.8996    0.7798 C   0  0  1  0  0  0  0  0  0  0  0  0
   -0.0505   -2.0285    2.1236 O   0  0  0  0  0  0  0  0  0  0  0  0
    0.7636   -2.5333   -0.0326 C   0  0  0  0  0  0  0  0  0  0  0  0
    1.9863   -1.9336    0.2306 O   0  0  0  0  0  0  0  0  0  0  0  0
    2.8948   -2.5203   -0.5015 O   0  0  0  0  0  0  0  0  0  0  0  0
    4.0075   -1.6866   -0.6876 C   0  0  1  0  0  0  0  0  0  0  0  0
    4.9782   -2.2912   -1.4596 O   0  0  0  0  0  0  0  0  0  0  0  0
    3.5873   -0.3843   -1.3347 C   0  0  2  0  0  0  0  0  0  0  0  0
    4.6947    0.4388   -1.5169 O   0  0  0  0  0  0  0  0  0  0  0  0
    2.4733    0.2925   -0.6055 C   0  0  0  0  0  3  0  0  0  0  0  0
    2.8395    0.6293    0.8144 C   0  0  0  0  0  0  0  0  0  0  0  0
    4.0345    1.5585    0.8434 C   0  0  0  0  0  3  0  0  0  0  0  0
    4.3048    1.8183    2.1940 O   0  0  0  0  0  0  0  0  0  0  0  0
  1  2  1  0
  3  2  1  1
  3  4  1  0
  4  5  1  1
  4  6  1  0
  6  7  1  1
  6  8  1  0
  8  9  1  6
  8 10  1  0
 10 11  1  0
 11 12  1  6
 12 13  1  0
 13 14  1  0
 14 15  1  1
 14 16  1  0
 16 17  1  0
 17 18  1  0
 18 19  1  0
 19 20  1  6
 19 21  1  0
 21 22  1  1
 21 23  1  0
 23 24  1  0
 24 25  1  0
 25 26  1  0
 11  3  1  0
M  RAD  4   2   2  12   2  23   2  25   2
M  END
>  <fragInfo>  (1) 
3 4 5 6 7 8 9 10 11
1 2
12
13
14 15
16
17
18
19 20
21 22
23
24
25 26


>  <torsionInfo>  (1) 
2 3 1 0
11 12 0 2
12 13 2 3
13 14 3 4
14 16 4 5
16 17 5 6
17 18 6 7
18 19 7 8
19 21 8 9
21 23 9 10
23 24 10 11
24 25 11 12


>  <atomInfo>  (1) 
1  -0.0617809C 
2  -0.0333217C 
3  0.01709644C 
4  0.09043691C 
5  -0.3898176OA
6  0.13077452C 
7  -0.3850909OA
8  0.18324760C 
9  -0.3657353OA
10 -0.3460868OA
11 0.06968575C 
12 -0.0065146C 
13 -0.0189002C 
14 0.08088026C 
15 -0.3905870OA
16 0.10822977C 
17 -0.2312020OA
18 -0.2017259OA
19 0.21477039C 
20 -0.3636405OA
21 0.11093124C 
22 -0.3874133OA
23 -0.0019885C 
24 -0.0185701C 
25 0.08025388C 
26 -0.3904234OA


$$$$
