
     RDKit          3D

 36 37  0  0  0  0  0  0  0  0999 V2000
   -5.5162    1.4378   -1.4126 C   0  0  0  0  0  0  0  0  0  0  0  0
   -4.4478    1.4570   -2.4666 C   0  0  2  0  0  0  0  0  0  0  0  0
   -4.0361    0.0766   -2.9111 C   0  0  0  0  0  0  0  0  0  0  0  0
   -3.2735    2.3281   -2.1091 C   0  0  0  0  0  0  0  0  0  0  0  0
   -2.4089    1.7404   -1.0274 C   0  0  0  0  0  0  0  0  0  0  0  0
   -3.0123    1.9343    0.3517 C   0  0  2  0  0  0  0  0  0  0  0  0
   -1.8891    1.6822    1.3543 C   0  0  1  0  0  0  0  0  0  0  0  0
   -2.4640    1.3045    2.7154 C   0  0  0  0  0  0  0  0  0  0  0  0
   -1.1230    0.4836    0.8549 C   0  0  0  0  0  3  0  0  0  0  0  0
   -0.4666   -0.2988    1.9438 C   0  0  0  0  0  3  0  0  0  0  0  0
   -0.5189   -1.7668    1.5598 C   0  0  0  0  0  0  0  0  0  0  0  0
    0.7747   -2.1214    0.8725 C   0  0  2  0  0  0  0  0  0  0  0  0
    1.6327   -0.8977    0.6585 C   0  0  0  0  0  0  0  0  0  0  0  0
    1.9209   -0.3114    2.0249 C   0  0  0  0  0  3  0  0  0  0  0  0
    2.7709    0.9200    1.9678 C   0  0  0  0  0  0  0  0  0  0  0  0
    4.1183    0.5240    1.2983 C   0  0  1  0  0  0  0  0  0  0  0  0
    3.7514    0.0299   -0.0386 N   0  0  0  0  0  0  0  0  0  0  0  0
    4.8834    1.7757    1.1680 C   0  0  0  0  0  0  0  0  0  0  0  0
    6.2058    1.8327    0.6244 C   0  0  0  0  0  0  0  0  0  0  0  0
    6.4513    1.3826   -0.7408 C   0  0  0  0  0  0  0  0  0  0  0  0
    6.1912   -0.0408   -1.0585 C   0  0  0  0  0  0  0  0  0  0  0  0
    7.0551   -0.9249   -0.2009 C   0  0  0  0  0  0  0  0  0  0  0  0
    8.5222   -0.6582   -0.4217 C   0  0  0  0  0  0  0  0  0  0  0  0
    8.9137   -0.9055   -1.8627 C   0  0  0  0  0  0  0  0  0  0  0  0
    0.6005   -2.9587   -0.3423 C   0  0  2  0  0  0  0  0  0  0  0  0
    1.7663   -2.7210   -1.2788 C   0  0  0  0  0  0  0  0  0  0  0  0
   -0.6699   -2.6847   -1.0970 C   0  0  0  0  0  0  0  0  0  0  0  0
   -1.6741   -3.6088   -0.8313 O   0  0  0  0  0  0  0  0  0  0  0  0
   -2.5760   -3.1945    0.1168 C   0  0  0  0  0  0  0  0  0  0  0  0
   -3.4270   -2.0314   -0.3122 C   0  0  0  0  0  0  0  0  0  0  0  0
   -4.0772   -1.4589    0.9331 C   0  0  0  0  0  0  0  0  0  0  0  0
   -3.5461   -0.2199    1.2800 O   0  0  0  0  0  0  0  0  0  0  0  0
   -4.0437    0.8221    0.5342 C   0  0  1  0  0  0  0  0  0  0  0  0
   -5.3248    1.3979    1.1459 C   0  0  0  0  0  0  0  0  0  0  0  0
   -5.3980    2.8464    0.6580 C   0  0  0  0  0  0  0  0  0  0  0  0
   -5.6648    2.8275   -0.8372 C   0  0  0  0  0  3  0  0  0  0  0  0
  1  2  1  0
  2  3  1  1
  2  4  1  0
  4  5  1  0
  6  5  1  6
  6  7  1  0
  7  8  1  1
  7  9  1  0
  9 10  1  0
 10 11  1  0
 11 12  1  0
 12 13  1  6
 13 14  1  0
 14 15  1  0
 15 16  1  0
 16 17  1  6
 16 18  1  0
 18 19  1  0
 19 20  1  0
 20 21  1  0
 21 22  1  0
 22 23  1  0
 23 24  1  0
 12 25  1  0
 25 26  1  6
 25 27  1  0
 27 28  1  0
 28 29  1  0
 29 30  1  0
 30 31  1  0
 31 32  1  0
 32 33  1  0
 33 34  1  1
 34 35  1  0
 35 36  1  0
 36  1  1  0
 33  6  1  0
M  RAD  4   9   2  10   2  14   2  36   2
M  END
>  <fragInfo>  (1) 
1 2 3 4 5 6 7 8 9 10 11 12 25 26 27 28 29 30 31 32 33 34 35 36
13
14
15
16 17
18
19
20
21
22
23 24


>  <torsionInfo>  (1) 
12 13 0 1
13 14 1 2
14 15 2 3
15 16 3 4
16 18 4 5
18 19 5 6
19 20 6 7
20 21 7 8
21 22 8 9
22 23 9 10


>  <atomInfo>  (1) 
1  -0.0475872C 
2  -0.0439944C 
3  -0.0624991C 
4  -0.0503312C 
5  -0.0474509C 
6  -0.0121196C 
7  -0.0355590C 
8  -0.0618622C 
9  -0.0319765C 
10 -0.0346200C 
11 -0.0466794C 
12 -0.0360955C 
13 -0.0469167C 
14 -0.0367704C 
15 -0.0348601C 
16 0.00415202C 
17 -0.3277010NA
18 -0.0379782C 
19 -0.0518323C 
20 -0.0532486C 
21 -0.0533150C 
22 -0.0535686C 
23 -0.0561716C 
24 -0.0653823C 
25 -0.0178265C 
26 -0.0600404C 
27 0.04937967C 
28 -0.3810741OA
29 0.04876301C 
30 -0.0059534C 
31 0.04914145C 
32 -0.3778331OA
33 0.06055816C 
34 -0.0261746C 
35 -0.0476943C 
36 -0.0382244C 


$$$$
