
     RDKit          3D

 19 19  0  0  0  0  0  0  0  0999 V2000
   -2.4268    2.3563    1.8158 C   0  0  0  0  0  0  0  0  0  0  0  0
   -1.9850    1.1688    1.1439 O   0  0  0  0  0  0  0  0  0  0  0  0
   -2.7407    0.6909    0.0667 C   0  0  0  0  0  0  0  0  0  0  0  0
   -3.8811    1.3295   -0.3518 C   0  0  0  0  0  0  0  0  0  0  0  0
   -4.5962    0.8352   -1.4082 C   0  0  0  0  0  0  0  0  0  0  0  0
   -4.1706   -0.2974   -2.0455 C   0  0  0  0  0  0  0  0  0  0  0  0
   -3.0280   -0.9174   -1.6084 C   0  0  0  0  0  0  0  0  0  0  0  0
   -2.2696   -0.4649   -0.5517 C   0  0  0  0  0  0  0  0  0  0  0  0
   -1.0373   -1.1704   -0.1119 C   0  0  0  0  0  0  0  0  0  0  0  0
    0.1208   -0.3893   -0.5990 C   0  0  0  0  0  0  0  0  0  0  0  0
    1.0332    0.1367    0.1710 C   0  0  0  0  0  0  0  0  0  0  0  0
    2.0933    0.8646   -0.4434 N   0  0  0  0  0  0  0  0  0  0  0  0
    3.4170    0.3574   -0.4918 C   0  0  0  0  0  0  0  0  0  0  0  0
    4.2846    0.8083   -1.4046 C   0  0  0  0  0  0  0  0  0  0  0  0
    5.6662    0.2579   -1.4311 C   0  0  0  0  0  0  0  0  0  0  0  0
    1.0288    0.0204    1.6563 C   0  0  0  0  0  0  0  0  0  0  0  0
    2.2940   -0.6766    2.0992 C   0  0  0  0  0  0  0  0  0  0  0  0
    2.3461   -2.0730    1.4683 C   0  0  0  0  0  0  0  0  0  0  0  0
    3.8512   -2.8368    2.0264 Cl  0  0  0  0  0  0  0  0  0  0  0  0
  1  2  1  0
  2  3  1  0
  3  4  2  0
  4  5  1  0
  5  6  2  0
  6  7  1  0
  7  8  2  0
  8  9  1  0
  9 10  1  0
 10 11  2  3
 11 12  1  0
 12 13  1  0
 13 14  2  3
 14 15  1  0
 11 16  1  0
 16 17  1  0
 17 18  1  0
 18 19  1  0
  8  3  1  0
M  END
>  <fragInfo>  (1) 
3 4 5 6 7 8
1 2
9
10 11
12
13 14 15
16
17
18 19


>  <torsionInfo>  (1) 
2 3 1 0
8 9 0 2
9 10 2 3
11 12 3 4
11 16 3 6
12 13 4 5
16 17 6 7
17 18 7 8


>  <atomInfo>  (1) 
1  0.07752237C 
2  -0.4964660OA
3  0.12186232A 
4  -0.0196831A 
5  -0.0585646A 
6  -0.0617132A 
7  -0.0550309A 
8  -0.0020677A 
9  -0.0040636C 
10 -0.0606384C 
11 0.01093523C 
12 -0.3655719N 
13 -0.0035978C 
14 -0.0715718C 
15 -0.0452510C 
16 -0.0118369C 
17 -0.0341328C 
18 0.02266683C 
19 -0.1267037Cl


$$$$
