
     RDKit          3D

 24 24  0  0  0  0  0  0  0  0999 V2000
    2.5922   -1.6915   -1.4124 C   0  0  0  0  0  0  0  0  0  0  0  0
    2.8813   -1.0660   -0.0624 C   0  0  1  0  0  0  0  0  0  0  0  0
    4.3599   -1.1508    0.1759 C   0  0  0  0  0  0  0  0  0  0  0  0
    5.0556   -0.1442   -0.6798 C   0  0  2  0  0  0  0  0  0  0  0  0
    6.4151   -0.2738   -0.7637 O   0  0  0  0  0  0  0  0  0  0  0  0
    4.6134    1.2349   -0.1753 C   0  0  2  0  0  0  0  0  0  0  0  0
    4.6034    1.2115    1.2232 O   0  0  0  0  0  0  0  0  0  0  0  0
    3.1738    1.3775   -0.6340 C   0  0  1  0  0  0  0  0  0  0  0  0
    3.2114    1.1744   -2.0355 O   0  0  0  0  0  0  0  0  0  0  0  0
    2.3125    0.3103   -0.0501 C   0  0  1  0  0  0  0  0  0  0  0  0
    1.0234    0.2723   -0.7316 N   0  0  0  0  0  0  0  0  0  0  0  0
    0.1261   -0.5836   -0.0100 C   0  0  0  0  0  3  0  0  0  0  0  0
   -1.1790    0.1982    0.1652 C   0  0  0  0  0  0  0  0  0  0  0  0
   -2.1576   -0.6879    0.9369 C   0  0  2  0  0  0  0  0  0  0  0  0
   -1.6128   -1.0031    2.1778 O   0  0  0  0  0  0  0  0  0  0  0  0
   -2.4660   -1.9284    0.1199 C   0  0  0  0  0  0  0  0  0  0  0  0
   -1.2427   -2.6058   -0.0539 O   0  0  0  0  0  0  0  0  0  0  0  0
   -3.4604    0.0509    1.1549 C   0  0  1  0  0  0  0  0  0  0  0  0
   -3.2676    1.2276    1.8730 O   0  0  0  0  0  0  0  0  0  0  0  0
   -4.0733    0.3360   -0.1850 C   0  0  2  0  0  0  0  0  0  0  0  0
   -3.2482    1.1699   -0.9343 O   0  0  0  0  0  0  0  0  0  0  0  0
   -5.4217    1.0222   -0.0533 C   0  0  0  0  0  0  0  0  0  0  0  0
   -6.3175    0.2541    0.6884 O   0  0  0  0  0  0  0  0  0  0  0  0
   -5.9212    1.2953   -1.3279 O   0  0  0  0  0  0  0  0  0  0  0  0
  2  1  1  6
  2  3  1  0
  3  4  1  0
  4  5  1  1
  4  6  1  0
  6  7  1  1
  6  8  1  0
  8  9  1  6
  8 10  1  0
 10 11  1  6
 11 12  1  0
 12 13  1  0
 13 14  1  0
 14 15  1  1
 14 16  1  0
 16 17  1  0
 14 18  1  0
 18 19  1  6
 18 20  1  0
 20 21  1  6
 20 22  1  0
 22 23  1  0
 22 24  1  0
 10  2  1  0
M  RAD  1  12   2
M  END
>  <fragInfo>  (1) 
1 2 3 4 5 6 7 8 9 10
11
12
13
14 15
16 17
18 19
20 21
22 23 24


>  <torsionInfo>  (1) 
10 11 0 1
11 12 1 2
12 13 2 3
13 14 3 4
14 16 4 5
14 18 4 6
18 20 6 7
20 22 7 8


>  <atomInfo>  (1) 
1  -0.0608233C 
2  -0.0236285C 
3  -0.0201755C 
4  0.08280077C 
5  -0.3903155OA
6  0.10722522C 
7  -0.3876533OA
8  0.09792914C 
9  -0.3886791OA
10 0.03839103C 
11 -0.3066467NA
12 0.02549957C 
13 -0.0021761C 
14 0.11767428C 
15 -0.3845987OA
16 0.07461903C 
17 -0.3932744OA
18 0.11579939C 
19 -0.3871015OA
20 0.13310899C 
21 -0.3849881OA
22 0.18034367C 
23 -0.3658864OA
24 -0.3658864OA


$$$$
