
     RDKit          2D

 22 24  0  0  0  0  0  0  0  0999 V2000
    6.5893    3.7653    0.0000 C   0  0  0  0  0  0  0  0  0  0  0  0
    5.2035    4.3393    0.0000 O   0  0  0  0  0  0  0  0  0  0  0  0
    4.0135    3.4262    0.0000 C   0  0  0  0  0  0  0  0  0  0  0  0
    2.6277    4.0002    0.0000 C   0  0  0  0  0  0  0  0  0  0  0  0
    1.4376    3.0870    0.0000 C   0  0  0  0  0  0  0  0  0  0  0  0
    0.0518    3.6611    0.0000 C   0  0  0  0  0  0  0  0  0  0  0  0
   -1.1382    2.7479    0.0000 C   0  0  0  0  0  0  0  0  0  0  0  0
   -2.4373    3.4979    0.0000 C   0  0  0  0  0  0  0  0  0  0  0  0
   -2.2415    4.9851    0.0000 C   0  0  0  0  0  0  0  0  0  0  0  0
   -3.8862    3.1097    0.0000 C   0  0  0  0  0  0  0  0  0  0  0  0
   -4.6362    1.8107    0.0000 C   0  0  0  0  0  0  0  0  0  0  0  0
   -4.2479    0.3618    0.0000 C   0  0  0  0  0  0  0  0  0  0  0  0
   -2.9489   -0.3882    0.0000 C   0  0  0  0  0  0  0  0  0  0  0  0
   -1.9814   -1.5345    0.0000 C   0  0  0  0  0  0  0  0  0  0  0  0
    0.7500   -1.2990    0.0000 C   0  0  0  0  0  0  0  0  0  0  0  0
    1.5000    0.0000    0.0000 C   0  0  0  0  0  0  0  0  0  0  0  0
    0.7500    1.2990    0.0000 C   0  0  0  0  0  0  0  0  0  0  0  0
   -0.7500    1.2990    0.0000 C   0  0  0  0  0  0  0  0  0  0  0  0
   -1.5000    0.0000    0.0000 C   0  0  0  0  0  0  0  0  0  0  0  0
   -0.7500   -1.2990    0.0000 C   0  0  0  0  0  0  0  0  0  0  0  0
   -1.5000   -2.5981    0.0000 C   0  0  0  0  0  0  0  0  0  0  0  0
   -0.7500   -3.8971    0.0000 C   0  0  0  0  0  0  0  0  0  0  0  0
  1  2  1  0
  2  3  1  0
  3  4  2  3
  4  5  1  0
  5  6  2  3
  6  7  1  0
  7  8  2  3
  8  9  1  0
  8 10  1  0
 10 11  2  3
 11 12  1  0
 12 13  2  3
 13 14  1  0
 14 15  2  0
 15 16  1  0
 16 17  2  0
 17 18  1  0
 18 19  2  0
 19 20  1  0
 20 21  1  0
 21 22  1  0
 18  7  1  0
 19 13  1  0
 20 15  1  0
M  END
>  <fragInfo>  (1) 
7 8 9 10 11 12 13 14 15 16 17 18 19 20
1 2
3 4
5 6
21 22


>  <torsionInfo>  (1) 
6 7 3 0
20 21 0 4
2 3 1 2
4 5 2 3


>  <atomInfo>  (1) 
1  0.07660055C 
2  -0.5043678OA
3  0.08241026C 
4  -0.0275323C 
5  -0.0585945C 
6  -0.0539937C 
7  -0.0151502C 
8  -0.0432643C 
9  -0.0391573C 
10 -0.0586861C 
11 -0.0613765C 
12 -0.0546431C 
13 -0.0209151C 
14 -0.0508185C 
15 -0.0398513C 
16 -0.0577725C 
17 -0.0537545C 
18 -0.0136950C 
19 -0.0254011C 
20 0.00989888C 
21 -0.0450831C 
22 -0.0644769C 


$$$$
