
     RDKit          3D

 25 27  0  0  0  0  0  0  0  0999 V2000
    0.0850    3.3171    1.0799 O   0  0  0  0  0  0  0  0  0  0  0  0
    0.2293    2.6849   -0.0429 C   0  0  0  0  0  0  0  0  0  0  0  0
    1.4059    2.1792   -0.5470 N   0  0  0  0  0  0  0  0  0  0  0  0
    1.9056    0.8487   -0.6271 C   0  0  0  0  0  0  0  0  0  0  0  0
    3.3060    0.6674   -0.7117 C   0  0  0  0  0  0  0  0  0  0  0  0
    3.9150   -0.5504   -0.7931 C   0  0  0  0  0  0  0  0  0  0  0  0
    5.6692   -0.6702   -0.8947 Cl  0  0  0  0  0  0  0  0  0  0  0  0
    3.1222   -1.6749   -0.7933 C   0  0  0  0  0  0  0  0  0  0  0  0
    1.7567   -1.5192   -0.7120 C   0  0  0  0  0  0  0  0  0  0  0  0
    0.8029   -2.9956   -0.7194 Cl  0  0  0  0  0  0  0  0  0  0  0  0
    1.1176   -0.2827   -0.6284 C   0  0  0  0  0  0  0  0  0  0  0  0
   -0.9975    2.5522   -0.7489 N   0  0  0  0  0  0  0  0  0  0  0  0
   -1.1982    1.9989   -2.0429 C   0  0  0  0  0  0  0  0  0  0  0  0
   -2.3365    1.0051   -1.9597 C   0  0  0  0  0  0  0  0  0  0  0  0
   -3.0842    1.2294   -0.6777 C   0  0  0  0  0  0  0  0  0  0  0  0
   -2.3561    0.9387    0.7517 S   0  0  1  0  0  0  0  0  0  0  0  0
   -0.9643    0.1703    0.6929 C   0  0  2  0  0  0  0  0  0  0  0  0
   -0.3635   -0.3053   -0.5611 C   0  0  2  0  0  0  0  0  0  0  0  0
   -0.8719   -1.5537   -1.1640 C   0  0  0  0  0  0  0  0  0  0  0  0
   -2.1532   -2.0231   -0.6785 N   0  0  0  0  0  0  0  0  0  0  0  0
   -2.4710   -2.8418    0.4718 C   0  0  0  0  0  0  0  0  0  0  0  0
   -2.0134   -2.7391    1.6928 N   0  0  0  0  0  0  0  0  0  0  0  0
   -1.0772   -1.8264    2.3130 C   0  0  0  0  0  0  0  0  0  0  0  0
   -0.6593   -0.6427    1.8923 C   0  0  0  0  0  0  0  0  0  0  0  0
   -2.7691    2.0331    2.2511 Cl  0  0  0  0  0  0  0  0  0  0  0  0
  1  2  2  0
  2  3  1  0
  3  4  1  0
  4  5  2  0
  5  6  1  0
  6  7  1  0
  6  8  2  0
  8  9  1  0
  9 10  1  0
  9 11  2  0
  2 12  1  0
 12 13  1  0
 13 14  1  0
 14 15  1  0
 15 16  1  0
 16 17  1  0
 17 18  1  0
 18 19  1  1
 19 20  1  0
 20 21  1  0
 21 22  2  3
 22 23  1  0
 23 24  2  3
 16 25  1  6
 11  4  1  0
 18 11  1  0
 17 24  1  1
M  END
>  <fragInfo>  (1) 
1 2 3 4 5 6 7 8 9 10 11 12 13 14 15 16 17 18 19 20 21 22 23 24 25


>  <torsionInfo>  (1) 


>  <atomInfo>  (1) 
1  -0.2485082OA
2  0.31874597C 
3  -0.3076185N 
4  0.04894191A 
5  -0.0193553A 
6  0.04411989A 
7  -0.0842076Cl
8  -0.0243538A 
9  0.04771075A 
10 -0.0838914Cl
11 0.00068194A 
12 -0.3378378N 
13 0.01988880C 
14 -0.0271046C 
15 -0.0104035C 
16 -0.1677496S 
17 0.02723398C 
18 0.01958461C 
19 0.02387765C 
20 -0.3754238N 
21 0.08785257C 
22 -0.2476112NA
23 0.02561810C 
24 -0.0530626C 
25 -0.0685478Cl


$$$$
