
     RDKit          3D

 22 24  0  0  0  0  0  0  0  0999 V2000
   -0.7927   -2.4516   -0.9396 C   0  0  0  0  0  0  0  0  0  0  0  0
    0.3729   -3.2917   -0.4868 C   0  0  1  0  0  0  0  0  0  0  0  0
    0.8536   -4.0918   -1.5981 N   0  0  0  0  0  2  0  0  0  0  0  0
    1.4639   -2.4140    0.0920 C   0  0  0  0  0  3  0  0  0  0  0  0
    0.9170   -1.0198    0.2265 C   0  0  0  0  0  0  0  0  0  0  0  0
    1.9903    0.0011    0.3025 C   0  0  0  0  0  0  0  0  0  0  0  0
    1.7464    1.3142   -0.0387 C   0  0  0  0  0  0  0  0  0  0  0  0
    2.8150    2.1866    0.0672 C   0  0  0  0  0  0  0  0  0  0  0  0
    4.0630    1.8151    0.4824 C   0  0  0  0  0  0  0  0  0  0  0  0
    5.1210    2.7439    0.5736 O   0  0  0  0  0  0  0  0  0  0  0  0
    4.2902    0.4999    0.8195 C   0  0  0  0  0  0  0  0  0  0  0  0
    3.2439   -0.3902    0.7234 C   0  0  0  0  0  0  0  0  0  0  0  0
   -1.3540   -1.6929   -0.0049 C   0  0  0  0  0  0  0  0  0  0  0  0
   -2.5006   -0.8005   -0.2352 C   0  0  1  0  0  0  0  0  0  0  0  0
   -3.6940   -1.0711    0.5546 C   0  0  0  0  0  3  0  0  0  0  0  0
   -4.4147    0.0746    1.0709 C   0  0  0  0  0  0  0  0  0  0  0  0
   -4.0699    1.3278    0.8781 C   0  0  0  0  0  0  0  0  0  0  0  0
   -4.8464    2.3265    1.4273 O   0  0  0  0  0  0  0  0  0  0  0  0
   -2.8758    1.5643    0.0869 C   0  0  0  0  0  0  0  0  0  0  0  0
   -2.1601    0.5948   -0.4208 C   0  0  0  0  0  0  0  0  0  0  0  0
   -0.6767    0.9499   -1.4019 S   0  0  0  0  0  0  0  0  0  0  0  0
    0.5077    1.8251   -0.4806 N   0  0  0  0  0  0  0  0  0  0  0  0
  1  2  1  0
  2  3  1  6
  2  4  1  0
  4  5  1  0
  5  6  1  0
  6  7  2  0
  7  8  1  0
  8  9  2  0
  9 10  1  0
  9 11  1  0
 11 12  2  0
  1 13  2  3
 13 14  1  0
 14 15  1  1
 15 16  1  0
 16 17  2  0
 17 18  1  0
 17 19  1  0
 19 20  2  0
 20 21  1  0
 21 22  1  0
 12  6  1  0
 22  7  1  0
 20 14  1  0
M  RAD  3   3   2   4   2  15   2
M  END
>  <fragInfo>  (1) 
1 2 3 4 5 6 7 8 9 10 11 12 13 14 15 16 17 18 19 20 21 22


>  <torsionInfo>  (1) 


>  <atomInfo>  (1) 
1  -0.0693553C 
2  0.04276994C 
3  -0.2500760NA
4  -0.0119212C 
5  -0.0207615C 
6  -0.0233268A 
7  0.05116824A 
8  0.00415084A 
9  0.11718789A 
10 -0.5078854OA
11 -0.0197979A 
12 -0.0532674A 
13 -0.0782016C 
14 0.01678953C 
15 -0.0011216C 
16 -0.0378374C 
17 0.11231000C 
18 -0.5082599OA
19 -0.0086033C 
20 0.01712822C 
21 -0.0190458SA
22 -0.3254932N 


$$$$
