
     RDKit          2D

 21 21  0  0  0  0  0  0  0  0999 V2000
    6.4598   -2.5981    0.0000 Cl  0  0  0  0  0  0  0  0  0  0  0  0
    5.7098   -1.2990    0.0000 C   0  0  0  0  0  0  0  0  0  0  0  0
    4.2098   -1.2990    0.0000 C   0  0  0  0  0  0  0  0  0  0  0  0
    3.4598   -0.0000    0.0000 C   0  0  0  0  0  0  0  0  0  0  0  0
    1.9598    0.0000    0.0000 N   0  0  0  0  0  0  0  0  0  0  0  0
    1.3858   -1.3858    0.0000 C   0  0  0  0  0  0  0  0  0  0  0  0
   -0.0000   -1.9598    0.0000 N   0  0  0  0  0  0  0  0  0  0  0  0
   -1.3858   -1.3858    0.0000 N   0  0  0  0  0  0  0  0  0  0  0  0
   -1.9598    0.0000    0.0000 N   0  0  0  0  0  0  0  0  0  0  0  0
   -0.5740    0.5740    0.0000 C   0  0  0  0  0  0  0  0  0  0  0  0
    0.0000    1.9598    0.0000 C   0  0  0  0  0  0  0  0  0  0  0  0
    1.3858    1.3858    0.0000 C   0  0  0  0  0  0  0  0  0  0  0  0
    1.5816    2.8730    0.0000 C   0  0  0  0  0  0  0  0  0  0  0  0
    2.8730    1.5816    0.0000 O   0  0  0  0  0  0  0  0  0  0  0  0
    3.4470    2.9674    0.0000 C   0  0  0  0  0  0  0  0  0  0  0  0
    4.9342    3.1632    0.0000 C   0  0  0  0  0  0  0  0  0  0  0  0
    2.5339    4.1575    0.0000 C   0  0  0  0  0  0  0  0  0  0  0  0
    3.1079    5.5433    0.0000 C   0  0  0  0  0  0  0  0  0  0  0  0
    2.1948    6.7333    0.0000 S   0  0  0  0  0  0  0  0  0  0  0  0
    2.7688    8.1191    0.0000 O   0  0  0  0  0  0  0  0  0  0  0  0
    1.8556    9.3092    0.0000 C   0  0  0  0  0  2  0  0  0  0  0  0
  1  2  1  0
  2  3  2  3
  3  4  1  0
  4  5  1  0
  5  6  1  0
  6  7  1  0
  7  8  1  0
  8  9  1  0
  9 10  2  0
 10 11  1  0
 11 12  1  0
 12 13  1  1
 12 14  1  0
 14 15  1  0
 15 16  1  0
 15 17  1  0
 17 18  2  3
 18 19  1  0
 19 20  1  0
 20 21  1  0
 12  5  1  0
M  RAD  1  21   3
M  END
>  <fragInfo>  (1) 
5 6 7 8 9 10 11 12 13
1 2 3
4
14
15 16
17 18
19
20 21


>  <torsionInfo>  (1) 
4 5 2 0
12 14 0 3
3 4 1 2
14 15 3 4
15 17 4 5
18 19 5 6
19 20 6 7


>  <atomInfo>  (1) 
1  -0.0932509Cl
2  0.00152586C 
3  -0.0590040C 
4  0.02145252C 
5  -0.2572327NA
6  0.07060466C 
7  -0.2062343NA
8  -0.2421400NA
9  -0.1772487NA
10 0.03003973C 
11 0.02732953C 
12 0.12554412C 
13 -0.0213758C 
14 -0.3532407OA
15 0.07599517C 
16 -0.0348849C 
17 -0.0474960C 
18 -0.0024777C 
19 0.02007882SA
20 -0.3017494OA
21 0.13281327C 


$$$$
