
     RDKit          3D

 31 32  0  0  0  0  0  0  0  0999 V2000
   -2.9594    1.0448    1.8734 C   0  0  0  0  0  0  0  0  0  0  0  0
   -3.9721    0.8652    1.0493 C   0  0  0  0  0  0  0  0  0  0  0  0
   -4.9414    1.9100    0.6363 C   0  0  0  0  0  0  0  0  0  0  0  0
   -6.1276    1.1278    0.0529 C   0  0  2  0  0  0  0  0  0  0  0  0
   -6.3980    0.1165    1.0069 O   0  0  0  0  0  0  0  0  0  0  0  0
   -5.7121    0.3735   -1.2033 C   0  0  1  0  0  0  0  0  0  0  0  0
   -5.6836    1.2150   -2.3107 O   0  0  0  0  0  0  0  0  0  0  0  0
   -4.3801   -0.3418   -1.0209 C   0  0  1  0  0  0  0  0  0  0  0  0
   -3.3533    0.5002   -1.5164 O   0  0  0  0  0  0  0  0  0  0  0  0
   -4.1773   -0.4925    0.4759 C   0  0  1  0  0  0  0  0  0  0  0  0
   -3.1609   -1.4344    0.8052 N   0  0  0  0  0  0  0  0  0  0  0  0
   -1.8451   -1.1329    0.3089 C   0  0  0  0  0  3  0  0  0  0  0  0
   -0.9737   -2.3253    0.6925 C   0  0  0  0  0  0  0  0  0  0  0  0
    0.4200   -2.2020    0.2051 C   0  0  1  0  0  0  0  0  0  0  0  0
    1.1309   -3.3303    0.6015 O   0  0  0  0  0  0  0  0  0  0  0  0
    0.3733   -2.1096   -1.3288 C   0  0  0  0  0  0  0  0  0  0  0  0
   -0.3466   -0.9668   -1.6261 O   0  0  0  0  0  0  0  0  0  0  0  0
    1.1583   -0.9659    0.6726 C   0  0  1  0  0  0  0  0  0  0  0  0
    1.2971   -0.9430    2.0554 O   0  0  0  0  0  0  0  0  0  0  0  0
    2.4933   -0.9858   -0.0480 C   0  0  2  0  0  0  0  0  0  0  0  0
    3.1569   -2.1378    0.3668 O   0  0  0  0  0  0  0  0  0  0  0  0
    3.3374    0.2161    0.2842 C   0  0  1  0  0  0  0  0  0  0  0  0
    4.5540    0.0416   -0.4202 O   0  0  0  0  0  0  0  0  0  0  0  0
    5.5108   -0.3343    0.3929 O   0  0  0  0  0  0  0  0  0  0  0  0
    6.6402    0.4227    0.0640 C   0  0  0  0  0  3  0  0  0  0  0  0
    6.2098    1.6938   -0.6541 C   0  0  0  0  0  0  0  0  0  0  0  0
    4.9979    2.3171    0.0009 C   0  0  0  0  0  0  0  0  0  0  0  0
    3.8021    2.3586   -0.9216 C   0  0  1  0  0  0  0  0  0  0  0  0
    4.1721    1.7344   -2.1260 O   0  0  0  0  0  0  0  0  0  0  0  0
    2.7142    1.4799   -0.3005 C   0  0  2  0  0  0  0  0  0  0  0  0
    2.0626    2.2854    0.8068 C   0  0  0  0  0  2  0  0  0  0  0  0
  1  2  2  0
  2  3  1  0
  3  4  1  0
  4  5  1  1
  4  6  1  0
  6  7  1  6
  6  8  1  0
  8  9  1  1
  8 10  1  0
 10 11  1  6
 11 12  1  0
 12 13  1  0
 13 14  1  0
 14 15  1  6
 14 16  1  0
 16 17  1  0
 14 18  1  0
 18 19  1  1
 18 20  1  0
 20 21  1  1
 20 22  1  0
 22 23  1  6
 23 24  1  0
 24 25  1  0
 25 26  1  0
 26 27  1  0
 27 28  1  0
 28 29  1  6
 28 30  1  0
 30 31  1  1
 10  2  1  0
 30 22  1  0
M  RAD  3  12   2  25   2  31   3
M  END
>  <fragInfo>  (1) 
1 2 3 4 5 6 7 8 9 10
11
12
13
14 15
16 17
18 19
20 21
22 23 24 25 26 27 28 29 30 31


>  <torsionInfo>  (1) 
10 11 0 1
11 12 1 2
12 13 2 3
13 14 3 4
14 16 4 5
14 18 4 6
18 20 6 7
20 22 7 8


>  <atomInfo>  (1) 
1  -0.0981005C 
2  -0.0551562C 
3  -0.0017598C 
4  0.08624334C 
5  -0.3899896OA
6  0.10785383C 
7  -0.3876275OA
8  0.10150787C 
9  -0.3883370OA
10 0.05708370C 
11 -0.3034993NA
12 0.02579259C 
13 -0.0021671C 
14 0.11757535C 
15 -0.3846006OA
16 0.07461716C 
17 -0.3932744OA
18 0.11349997C 
19 -0.3872036OA
20 0.11245284C 
21 -0.3874415OA
22 0.12694649C 
23 -0.2297319OA
24 -0.2301036OA
25 0.12229687C 
26 -0.0183509C 
27 -0.0239287C 
28 0.05988549C 
29 -0.3927220OA
30 0.02036857C 
31 -0.0262191C 


$$$$
