
     RDKit          3D

 22 22  0  0  0  0  0  0  0  0999 V2000
   -4.7901    1.4391    1.6530 C   0  0  0  0  0  0  0  0  0  0  0  0
   -4.8052    2.1240    0.3144 C   0  0  0  0  0  0  0  0  0  0  0  0
   -4.3180    3.5507    0.4035 C   0  0  0  0  0  0  0  0  0  0  0  0
   -4.1039    1.3363   -0.7519 C   0  0  0  0  0  0  0  0  0  0  0  0
   -4.7938    0.0027   -0.8968 C   0  0  0  0  0  0  0  0  0  0  0  0
   -4.7870   -0.8141    0.3556 C   0  0  0  0  0  0  0  0  0  0  0  0
   -3.4026   -1.1265    0.8316 C   0  0  1  0  0  0  0  0  0  0  0  0
   -3.4633   -1.9450    2.0868 C   0  0  0  0  0  0  0  0  0  0  0  0
   -2.6751   -1.8813   -0.2510 C   0  0  0  0  0  3  0  0  0  0  0  0
   -1.2766   -2.1885    0.2486 C   0  0  0  0  0  0  0  0  0  0  0  0
   -0.5860   -0.8934    0.5464 C   0  0  0  0  0  0  0  0  0  0  0  0
    0.8155   -1.1653    1.0482 C   0  0  1  0  0  0  0  0  0  0  0  0
    1.5836   -1.9161   -0.0180 C   0  0  0  0  0  0  0  0  0  0  0  0
    1.4935    0.0897    1.4932 C   0  0  0  0  0  3  0  0  0  0  0  0
    1.6204    1.0996    0.3986 C   0  0  0  0  0  0  0  0  0  0  0  0
    2.4265    0.5171   -0.7287 C   0  0  0  0  0  0  0  0  0  0  0  0
    3.8122    0.1173   -0.3154 C   0  0  2  0  0  0  0  0  0  0  0  0
    4.6672    1.2525    0.2239 C   0  0  0  0  0  0  0  0  0  0  0  0
    5.6626    1.0860   -0.9038 C   0  0  1  0  0  0  0  0  0  0  0  0
    6.8815    0.5447   -0.5383 O   0  0  0  0  0  0  0  0  0  0  0  0
    4.7226    0.0743   -1.5253 C   0  0  1  0  0  0  0  0  0  0  0  0
    5.3160   -1.3039   -1.7242 C   0  0  0  0  0  2  0  0  0  0  0  0
  1  2  1  0
  2  3  1  0
  2  4  1  0
  4  5  1  0
  5  6  1  0
  6  7  1  0
  7  8  1  1
  7  9  1  0
  9 10  1  0
 10 11  1  0
 11 12  1  0
 12 13  1  6
 12 14  1  0
 14 15  1  0
 15 16  1  0
 17 16  1  6
 17 18  1  0
 18 19  1  0
 19 20  1  1
 19 21  1  0
 21 22  1  1
 21 17  1  0
M  RAD  3   9   2  14   2  22   3
M  END
>  <fragInfo>  (1) 
17 18 19 20 21 22
1 2 3
4
5
6
7 8
9
10
11
12 13
14
15
16


>  <torsionInfo>  (1) 
16 17 12 0
2 4 1 2
4 5 2 3
5 6 3 4
6 7 4 5
7 9 5 6
9 10 6 7
10 11 7 8
11 12 8 9
12 14 9 10
14 15 10 11
15 16 11 12


>  <atomInfo>  (1) 
1  -0.0627736C 
2  -0.0471324C 
3  -0.0627736C 
4  -0.0509643C 
5  -0.0527983C 
6  -0.0504266C 
7  -0.0411603C 
8  -0.0622342C 
9  -0.0357403C 
10 -0.0496542C 
11 -0.0501522C 
12 -0.0411500C 
13 -0.0622340C 
14 -0.0357399C 
15 -0.0496408C 
16 -0.0496966C 
17 -0.0333585C 
18 -0.0234921C 
19 0.05762356C 
20 -0.3928087OA
21 -0.0089121C 
22 -0.0288545C 


$$$$
