
     RDKit          2D

 86 86  0  0  0  0  0  0  0  0999 V2000
    5.2700    0.0000    0.0000 C   0  0  0  0  0  0  0  0  0  0  0  0
    5.0565   -1.4847    0.0000 C   0  0  0  0  0  0  0  0  0  0  0  0
    6.4958   -1.9073    0.0000 C   0  0  0  0  0  0  0  0  0  0  0  0
    4.4334   -2.8492    0.0000 C   0  0  0  0  0  0  0  0  0  0  0  0
    3.4511   -3.9828    0.0000 C   0  0  0  0  0  0  0  0  0  0  0  0
    2.1892   -4.7938    0.0000 C   0  0  0  0  0  0  0  0  0  0  0  0
    0.7500   -5.2164    0.0000 C   0  0  0  0  0  0  0  0  0  0  0  0
    0.9635   -6.7011    0.0000 C   0  0  0  0  0  0  0  0  0  0  0  0
   -0.7500   -5.2164    0.0000 C   0  0  0  0  0  3  0  0  0  0  0  0
   -2.1892   -4.7938    0.0000 C   0  0  0  0  0  0  0  0  0  0  0  0
   -3.4511   -3.9828    0.0000 C   0  0  0  0  0  0  0  0  0  0  0  0
   -4.4334   -2.8492    0.0000 C   0  0  0  0  0  0  0  0  0  0  0  0
   -5.6953   -3.6601    0.0000 C   0  0  0  0  0  0  0  0  0  0  0  0
   -5.0565   -1.4847    0.0000 C   0  0  0  0  0  0  0  0  0  0  0  0
   -5.2700    0.0000    0.0000 C   0  0  0  0  0  0  0  0  0  0  0  0
   -5.0565    1.4847    0.0000 C   0  0  0  0  0  0  0  0  0  0  0  0
   -6.4958    1.9073    0.0000 C   0  0  0  0  0  0  0  0  0  0  0  0
   -4.4334    2.8492    0.0000 C   0  0  0  0  0  0  0  0  0  0  0  0
   -3.4511    3.9828    0.0000 C   0  0  0  0  0  0  0  0  0  0  0  0
   -4.4334    5.1164    0.0000 C   0  0  0  0  0  0  0  0  0  0  0  0
   -2.1892    4.7938    0.0000 C   0  0  0  0  0  0  0  0  0  0  0  0
   -0.7500    5.2164    0.0000 C   0  0  0  0  0  0  0  0  0  0  0  0
    0.7500    5.2164    0.0000 C   0  0  0  0  0  0  0  0  0  0  0  0
    0.9635    6.7011    0.0000 C   0  0  0  0  0  0  0  0  0  0  0  0
    2.1892    4.7938    0.0000 O   0  0  0  0  0  0  0  0  0  0  0  0
    3.4511    3.9828    0.0000 C   0  0  0  0  0  0  0  0  0  0  0  0
    4.4334    2.8492    0.0000 C   0  0  0  0  0  0  0  0  0  0  0  0
    5.0565    1.4847    0.0000 C   0  0  0  0  0  0  0  0  0  0  0  0
    6.4958    1.9073    0.0000 C   0  0  0  0  0  0  0  0  0  0  0  0
    6.8494    3.3650    0.0000 C   0  0  0  0  0  0  0  0  0  0  0  0
    8.2887    3.7876    0.0000 C   0  0  0  0  0  0  0  0  0  0  0  0
    8.6423    5.2454    0.0000 C   0  0  0  0  0  0  0  0  0  0  0  0
   10.0815    5.6680    0.0000 C   0  0  0  0  0  0  0  0  0  0  0  0
   10.4352    7.1257    0.0000 C   0  0  0  0  0  0  0  0  0  0  0  0
   11.1671    4.6328    0.0000 C   0  0  0  0  0  0  0  0  0  0  0  0
   12.2022    5.7184    0.0000 C   0  0  0  0  0  0  0  0  0  0  0  0
   10.1320    3.5472    0.0000 C   0  0  0  0  0  0  0  0  0  0  0  0
   12.2527    3.5977    0.0000 C   0  0  0  0  0  0  0  0  0  0  0  0
   11.8991    2.1400    0.0000 C   0  0  0  0  0  0  0  0  0  0  0  0
   12.9847    1.1049    0.0000 C   0  0  0  0  0  0  0  0  0  0  0  0
   12.6311   -0.3528    0.0000 C   0  0  0  0  0  0  0  0  0  0  0  0
   13.7167   -1.3879    0.0000 C   0  0  0  0  0  0  0  0  0  0  0  0
   11.1918   -0.7754    0.0000 C   0  0  0  0  0  0  0  0  0  0  0  0
   10.8382   -2.2331    0.0000 C   0  0  0  0  0  0  0  0  0  0  0  0
    9.3989   -2.6557    0.0000 C   0  0  0  0  0  0  0  0  0  0  0  0
    9.8215   -4.0950    0.0000 C   0  0  0  0  0  0  0  0  0  0  0  0
    8.9763   -1.2165    0.0000 C   0  0  0  0  0  0  0  0  0  0  0  0
    7.9597   -3.0783    0.0000 C   0  0  0  0  0  0  0  0  0  0  0  0
    7.6061   -4.5361    0.0000 C   0  0  0  0  0  0  0  0  0  0  0  0
    6.1668   -4.9587    0.0000 C   0  0  0  0  0  0  0  0  0  0  0  0
    5.8132   -6.4164    0.0000 C   0  0  0  0  0  0  0  0  0  0  0  0
    4.3739   -6.8390    0.0000 C   0  0  0  0  0  0  0  0  0  0  0  0
    4.0203   -8.2967    0.0000 C   0  0  0  0  0  0  0  0  0  0  0  0
    3.2883   -5.8039    0.0000 C   0  0  0  0  0  3  0  0  0  0  0  0
    1.8491   -6.2265    0.0000 C   0  0  0  0  0  0  0  0  0  0  0  0
    1.4955   -7.6842    0.0000 C   0  0  0  0  0  0  0  0  0  0  0  0
    0.0562   -8.1068    0.0000 C   0  0  0  0  0  2  0  0  0  0  0  0
   -0.2974   -9.5645    0.0000 C   0  0  0  0  0  0  0  0  0  0  0  0
   -1.7367   -9.9871    0.0000 C   0  0  0  0  0  0  0  0  0  0  0  0
   -2.0903  -11.4448    0.0000 C   0  0  0  0  0  0  0  0  0  0  0  0
   -3.5295  -11.8674    0.0000 C   0  0  0  0  0  0  0  0  0  0  0  0
   -3.8832  -13.3251    0.0000 C   0  0  0  0  0  0  0  0  0  0  0  0
   -5.3224  -13.7477    0.0000 C   0  0  0  0  0  0  0  0  0  0  0  0
   -2.7976  -14.3602    0.0000 C   0  0  0  0  0  3  0  0  0  0  0  0
   -3.1512  -15.8180    0.0000 C   0  0  0  0  0  0  0  0  0  0  0  0
   -2.0656  -16.8531    0.0000 C   0  0  0  0  0  0  0  0  0  0  0  0
   -2.4192  -18.3108    0.0000 C   0  0  0  0  0  0  0  0  0  0  0  0
   -1.3336  -19.3459    0.0000 C   0  0  0  0  0  0  0  0  0  0  0  0
   -1.6873  -20.8036    0.0000 C   0  0  0  0  0  0  0  0  0  0  0  0
   -0.6017  -21.8387    0.0000 C   0  0  0  0  0  0  0  0  0  0  0  0
   -0.9553  -23.2965    0.0000 C   0  0  0  0  0  0  0  0  0  0  0  0
    0.1303  -24.3316    0.0000 C   0  0  0  0  0  0  0  0  0  0  0  0
   -0.2234  -25.7893    0.0000 C   0  0  0  0  0  0  0  0  0  0  0  0
    0.8622  -26.8244    0.0000 C   0  0  0  0  0  0  0  0  0  0  0  0
    0.5086  -28.2821    0.0000 C   0  0  0  0  0  0  0  0  0  0  0  0
    1.5942  -29.3173    0.0000 C   0  0  0  0  0  0  0  0  0  0  0  0
    1.2406  -30.7750    0.0000 C   0  0  0  0  0  0  0  0  0  0  0  0
    2.3262  -31.8101    0.0000 C   0  0  0  0  0  0  0  0  0  0  0  0
    1.9725  -33.2678    0.0000 C   0  0  0  0  0  0  0  0  0  0  0  0
    3.0581  -34.3029    0.0000 C   0  0  0  0  0  0  0  0  0  0  0  0
    2.7045  -35.7606    0.0000 C   0  0  0  0  0  0  0  0  0  0  0  0
    3.7901  -36.7958    0.0000 S   0  0  0  0  0  0  0  0  0  0  0  0
    3.4365  -38.2535    0.0000 C   0  0  0  0  0  0  0  0  0  0  0  0
    4.5221  -39.2886    0.0000 C   0  0  0  0  0  0  0  0  0  0  0  0
    4.1684  -40.7463    0.0000 C   0  0  0  0  0  3  0  0  0  0  0  0
    5.2540  -41.7814    0.0000 C   0  0  0  0  0  0  0  0  0  0  0  0
  1  2  1  0
  2  3  1  0
  2  4  1  0
  4  5  1  0
  5  6  1  0
  6  7  1  0
  7  8  1  1
  7  9  1  0
  9 10  1  0
 10 11  1  0
 11 12  1  0
 12 13  1  6
 12 14  1  0
 14 15  1  0
 15 16  1  0
 16 17  1  0
 16 18  1  0
 18 19  1  0
 19 20  1  0
 19 21  1  0
 21 22  1  0
 22 23  1  0
 23 24  1  0
 23 25  1  0
 25 26  1  0
 26 27  1  0
 27 28  1  0
 28 29  1  0
 29 30  1  0
 30 31  1  0
 31 32  1  0
 32 33  1  0
 33 34  1  0
 33 35  1  0
 35 36  1  0
 35 37  1  0
 35 38  1  0
 38 39  1  0
 39 40  1  0
 40 41  1  0
 41 42  1  0
 41 43  1  0
 43 44  1  0
 44 45  1  0
 45 46  1  0
 45 47  1  0
 45 48  1  0
 48 49  1  0
 49 50  1  0
 50 51  1  0
 51 52  1  0
 52 53  1  0
 52 54  1  0
 54 55  1  0
 55 56  1  0
 56 57  1  0
 57 58  1  0
 58 59  1  0
 59 60  1  0
 60 61  1  0
 61 62  1  0
 62 63  1  0
 62 64  1  0
 64 65  1  0
 65 66  1  0
 66 67  1  0
 67 68  1  0
 68 69  1  0
 69 70  1  0
 70 71  1  0
 71 72  1  0
 72 73  1  0
 73 74  1  0
 74 75  1  0
 75 76  1  0
 76 77  1  0
 77 78  1  0
 78 79  1  0
 79 80  1  0
 80 81  1  0
 81 82  2  3
 82 83  1  0
 83 84  1  0
 84 85  2  3
 85 86  1  0
 28  1  1  0
M  RAD  5   9   2  54   2  57   3  64   2  85   2
M  END
>  <fragInfo>  (1) 
1 2 3 4 5 6 7 8 9 10 11 12 13 14 15 16 17 18 19 20 21 22 23 24 25 26 27 28
29
30
31
32
33 34
35 36 37
38
39
40
41 42
43
44
45 46 47
48
49
50
51
52 53
54
55
56
57
58
59
60
61
62 63
64
65
66
67
68
69
70
71
72
73
74
75
76
77
78
79
80
81 82
83
84 85 86


>  <torsionInfo>  (1) 
28 29 0 1
29 30 1 2
30 31 2 3
31 32 3 4
32 33 4 5
33 35 5 6
35 38 6 7
38 39 7 8
39 40 8 9
40 41 9 10
41 43 10 11
43 44 11 12
44 45 12 13
45 48 13 14
48 49 14 15
49 50 15 16
50 51 16 17
51 52 17 18
52 54 18 19
54 55 19 20
55 56 20 21
56 57 21 22
57 58 22 23
58 59 23 24
59 60 24 25
60 61 25 26
61 62 26 27
62 64 27 28
64 65 28 29
65 66 29 30
66 67 30 31
67 68 31 32
68 69 32 33
69 70 33 34
70 71 34 35
71 72 35 36
72 73 36 37
73 74 37 38
74 75 38 39
75 76 39 40
76 77 40 41
77 78 41 42
78 79 42 43
79 80 43 44
80 81 44 45
82 83 45 46
83 84 46 47


>  <atomInfo>  (1) 
1  -0.0477692C 
2  -0.0440149C 
3  -0.0624995C 
4  -0.0506908C 
5  -0.0527880C 
6  -0.0504264C 
7  -0.0411603C 
8  -0.0622342C 
9  -0.0357404C 
10 -0.0496646C 
11 -0.0504268C 
12 -0.0442596C 
13 -0.0625093C 
14 -0.0504571C 
15 -0.0504475C 
16 -0.0440167C 
17 -0.0624995C 
18 -0.0481155C 
19 -0.0439319C 
20 -0.0624980C 
21 -0.0482441C 
22 -0.0267540C 
23 0.05466454C 
24 -0.0386794C 
25 -0.3784996OA
26 0.04718197C 
27 -0.0267288C 
28 -0.0389865C 
29 -0.0503528C 
30 -0.0530302C 
31 -0.0530220C 
32 -0.0502015C 
33 -0.0391255C 
34 -0.0619989C 
35 -0.0328524C 
36 -0.0596541C 
37 -0.0596541C 
38 -0.0478608C 
39 -0.0525338C 
40 -0.0506906C 
41 -0.0442597C 
42 -0.0625093C 
43 -0.0502028C 
44 -0.0478719C 
45 -0.0354117C 
46 -0.0599093C 
47 -0.0599093C 
48 -0.0481252C 
49 -0.0527874C 
50 -0.0530219C 
51 -0.0504360C 
52 -0.0411603C 
53 -0.0622342C 
54 -0.0357292C 
55 -0.0493477C 
56 -0.0462058C 
57 -0.0173330C 
58 -0.0464896C 
59 -0.0527251C 
60 -0.0530208C 
61 -0.0504360C 
62 -0.0411607C 
63 -0.0622342C 
64 -0.0357506C 
65 -0.0499182C 
66 -0.0530217C 
67 -0.0532954C 
68 -0.0533057C 
69 -0.0533059C 
70 -0.0533059C 
71 -0.0533059C 
72 -0.0533059C 
73 -0.0533059C 
74 -0.0533059C 
75 -0.0533059C 
76 -0.0533057C 
77 -0.0532947C 
78 -0.0529932C 
79 -0.0493538C 
80 -0.0297957C 
81 -0.0637711C 
82 -0.2005316S 
83 0.00380226C 
84 -0.0721400C 
85 -0.0516840C 
86 -0.0398093C 


$$$$
