
     RDKit          3D

 34 36  0  0  0  0  0  0  0  0999 V2000
   -1.9761    1.7383   -3.6560 O   0  0  0  0  0  0  0  0  0  0  0  0
   -3.1554    1.4895   -3.3202 N   0  0  0  0  0  4  0  0  0  0  0  0
   -3.8276    0.5401   -4.0423 O   0  0  0  0  0  1  0  0  0  0  0  0
   -3.8147    2.1281   -2.2532 C   0  0  0  0  0  0  0  0  0  0  0  0
   -3.6282    1.7122   -1.0204 C   0  0  0  0  0  0  0  0  0  0  0  0
   -4.2394    2.2742    0.1688 C   0  0  0  0  0  0  0  0  0  0  0  0
   -5.1199    1.6062    0.9331 C   0  0  0  0  0  0  0  0  0  0  0  0
   -5.6409    2.3416    2.1140 C   0  0  0  0  0  0  0  0  0  0  0  0
   -4.9277    1.9437    3.3191 N   0  0  0  0  0  2  0  0  0  0  0  0
   -4.0157    0.9084    2.9585 C   0  0  0  0  0  0  0  0  0  0  0  0
   -4.3632   -0.1076    2.2507 N   0  0  0  0  0  0  0  0  0  0  0  0
   -3.4304   -1.1011    1.9209 C   0  0  0  0  0  0  0  0  0  0  0  0
   -3.0389   -1.3706    0.7089 N   0  0  0  0  0  0  0  0  0  0  0  0
   -3.5132   -0.6823   -0.4459 C   0  0  0  0  0  3  0  0  0  0  0  0
   -2.7038    0.5611   -0.7921 C   0  0  2  0  0  0  0  0  0  0  0  0
   -1.7317    0.8878    0.3324 C   0  0  0  0  0  0  0  0  0  0  0  0
   -0.7998   -0.1631    0.6099 N   0  0  0  0  0  0  0  0  0  0  0  0
    0.1510   -0.3375   -0.4799 C   0  0  0  0  0  0  0  0  0  0  0  0
    1.1174   -1.4196   -0.1265 C   0  0  0  0  0  0  0  0  0  0  0  0
    2.4052   -1.0743   -0.0610 C   0  0  0  0  0  0  0  0  0  0  0  0
    2.8552    0.3077   -0.3231 C   0  0  0  0  0  3  0  0  0  0  0  0
    4.2421    0.3600   -0.9227 C   0  0  0  0  0  3  0  0  0  0  0  0
    5.2201    0.4540    0.2311 C   0  0  2  0  0  0  0  0  0  0  0  0
    4.9467    1.7227    1.0949 C   0  0  0  0  0  0  0  0  0  0  0  0
    6.2276    1.5458    0.2610 C   0  0  1  0  0  0  0  0  0  0  0  0
    7.4438    1.2844    1.1208 C   0  0  0  0  0  0  0  0  0  0  0  0
    8.1956    0.0573    0.6490 C   0  0  0  0  0  0  0  0  0  0  0  0
    9.3860   -0.1083    1.5742 C   0  0  0  0  0  0  0  0  0  0  0  0
    3.4026   -2.1197    0.2802 C   0  0  0  0  0  0  0  0  0  0  0  0
    2.9597   -3.4492   -0.2511 C   0  0  0  0  0  0  0  0  0  0  0  0
    1.6786   -3.7661   -0.3166 C   0  0  0  0  0  0  0  0  0  0  0  0
    0.6606   -2.7994    0.1400 C   0  0  2  0  0  0  0  0  0  0  0  0
   -0.6145   -3.1279   -0.6478 C   0  0  0  0  0  0  0  0  0  0  0  0
   -0.3511   -2.9984   -2.0088 O   0  0  0  0  0  1  0  0  0  0  0  0
  1  2  2  0
  2  3  1  0
  2  4  1  0
  4  5  2  3
  5  6  1  0
  6  7  2  3
  7  8  1  0
  8  9  1  0
  9 10  1  0
 10 11  2  3
 11 12  1  0
 12 13  2  3
 13 14  1  0
 14 15  1  0
 15 16  1  1
 16 17  1  0
 17 18  1  0
 18 19  1  0
 19 20  2  0
 20 21  1  0
 21 22  1  0
 23 22  1  6
 23 24  1  0
 24 25  1  0
 25 26  1  1
 26 27  1  0
 27 28  1  0
 20 29  1  0
 29 30  1  0
 30 31  2  0
 31 32  1  0
 32 33  1  6
 33 34  1  0
 15  5  1  0
 32 19  1  0
 25 23  1  0
M  CHG  4   2   1   3  -1   9   1  34  -1
M  RAD  4   9   3  14   2  21   2  22   2
M  END
>  <fragInfo>  (1) 
4 5 6 7 8 9 10 11 12 13 14 15
1 2 3
16
17
18
19 20 29 30 31 32
21
22
23 24 25
26
27 28
33 34


>  <torsionInfo>  (1) 
2 4 1 0
15 16 0 2
16 17 2 3
17 18 3 4
18 19 4 5
20 21 5 6
32 33 5 11
21 22 6 7
22 23 7 8
25 26 8 9
26 27 9 10


>  <atomInfo>  (1) 
1  -0.2588571OA
2  0.05452330N 
3  -0.2588571OA
4  0.23750971C 
5  0.02849820C 
6  -0.0504472C 
7  -0.0180939C 
8  0.21075801C 
9  0.11952388N 
10 0.30387269C 
11 -0.1826099NA
12 0.11586879C 
13 -0.2669943NA
14 0.08308346C 
15 0.02711123C 
16 0.00469875C 
17 -0.3122805NA
18 0.01727061C 
19 -0.0510636C 
20 -0.0614055C 
21 -0.0093937C 
22 -0.0274123C 
23 -0.0345664C 
24 -0.0467526C 
25 -0.0380029C 
26 -0.0504241C 
27 -0.0558972C 
28 -0.0653720C 
29 -0.0132113C 
30 -0.0838961C 
31 -0.0823166C 
32 -0.0160834C 
33 -0.1294941C 
34 -0.8538019OA


$$$$
