
     RDKit          3D

 14 13  0  0  0  0  0  0  0  0999 V2000
    5.2039    0.3820   -0.0364 C   0  0  0  0  0  0  0  0  0  0  0  0
    3.7542   -0.0961   -0.1735 C   0  0  0  0  0  3  0  0  0  0  0  0
    2.9160    0.8236    0.6856 C   0  0  0  0  0  0  0  0  0  0  0  0
    1.4599    0.4923    0.6645 C   0  0  2  0  0  0  0  0  0  0  0  0
    1.1699   -0.7737    1.1127 O   0  0  0  0  0  0  0  0  0  0  0  0
    0.8724    0.6661   -0.7244 C   0  0  2  0  0  0  0  0  0  0  0  0
    1.1937    1.9759   -1.1443 O   0  0  0  0  0  0  0  0  0  0  0  0
   -0.6396    0.6069   -0.6873 C   0  0  1  0  0  0  0  0  0  0  0  0
   -1.0916    0.8766   -1.9805 O   0  0  0  0  0  0  0  0  0  0  0  0
   -1.1490   -0.7566   -0.2830 C   0  0  0  0  0  3  0  0  0  0  0  0
   -2.6549   -0.6928   -0.2818 C   0  0  2  0  0  0  0  0  0  0  0  0
   -3.0707    0.3664    0.7136 C   0  0  0  0  0  2  0  0  0  0  0  0
   -3.2899   -2.0302    0.0077 C   0  0  0  0  0  0  0  0  0  0  0  0
   -4.6742   -1.8406   -0.0189 O   0  0  0  0  0  0  0  0  0  0  0  0
  1  2  1  0
  2  3  1  0
  3  4  1  0
  4  5  1  6
  4  6  1  0
  6  7  1  1
  6  8  1  0
  8  9  1  6
  8 10  1  0
 10 11  1  0
 11 12  1  1
 11 13  1  0
 13 14  1  0
M  RAD  3   2   2  10   2  12   3
M  END
>  <fragInfo>  (1) 
1 2
3
4 5
6 7
8 9
10
11 12
13 14


>  <torsionInfo>  (1) 
2 3 0 1
3 4 1 2
4 6 2 3
6 8 3 4
8 10 4 5
10 11 5 6
11 13 6 7


>  <atomInfo>  (1) 
1  -0.0621560C 
2  -0.0390442C 
3  -0.0215039C 
4  0.08269800C 
5  -0.3903174OA
6  0.10597409C 
7  -0.3877077OA
8  0.08595962C 
9  -0.3900110OA
10 -0.0015395C 
11 -0.0089316C 
12 -0.0290407C 
13 0.04653887C 
14 -0.3960639OA


$$$$
