
     RDKit          3D

 33 34  0  0  0  0  0  0  0  0999 V2000
   -4.7800    1.1864   -1.3072 C   0  0  0  0  0  0  0  0  0  0  0  0
   -3.4831    1.9097   -1.6208 C   0  0  1  0  0  0  0  0  0  0  0  0
   -3.6766    3.3485   -1.1564 C   0  0  0  0  0  0  0  0  0  0  0  0
   -2.3806    3.9007   -0.6310 C   0  0  2  0  0  0  0  0  0  0  0  0
   -1.3622    3.8685   -1.5788 O   0  0  0  0  0  0  0  0  0  0  0  0
   -1.9323    3.2121    0.6471 C   0  0  2  0  0  0  0  0  0  0  0  0
   -0.5490    3.1580    0.6139 O   0  0  0  0  0  0  0  0  0  0  0  0
   -2.4979    1.7976    0.5995 C   0  0  1  0  0  0  0  0  0  0  0  0
   -3.8528    1.9124    0.9450 O   0  0  0  0  0  0  0  0  0  0  0  0
   -2.3329    1.3120   -0.8182 C   0  0  1  0  0  0  0  0  0  0  0  0
   -2.2974   -0.1231   -0.9250 N   0  0  0  0  0  0  0  0  0  0  0  0
   -2.0793   -0.7927    0.3289 C   0  0  1  0  0  0  0  0  0  0  0  0
   -2.8257   -2.1108    0.3469 C   0  0  0  0  0  0  0  0  0  0  0  0
   -2.5543   -2.9310   -0.8974 C   0  0  0  0  0  0  0  0  0  0  0  0
   -3.3550   -2.5268   -1.9692 O   0  0  0  0  0  0  0  0  0  0  0  0
   -2.7742   -4.2736   -0.5829 O   0  0  0  0  0  0  0  0  0  0  0  0
   -1.2047   -2.7820   -1.2033 O   0  0  0  0  0  0  0  0  0  0  0  0
   -0.4524   -3.3326   -0.1773 C   0  0  1  0  0  0  0  0  0  0  0  0
    0.8847   -3.8536   -0.6366 C   0  0  0  0  0  0  0  0  0  0  0  0
   -0.2540   -2.3937    0.9793 C   0  0  2  0  0  0  0  0  0  0  0  0
   -0.8480   -2.8415    2.1446 O   0  0  0  0  0  0  0  0  0  0  0  0
   -0.6354   -0.9753    0.6805 C   0  0  1  0  0  0  0  0  0  0  0  0
    0.2430   -0.4123   -0.2240 O   0  0  0  0  0  0  0  0  0  0  0  0
    1.4386   -0.4057    0.3495 O   0  0  0  0  0  0  0  0  0  0  0  0
    2.3525   -0.9678   -0.4120 O   0  0  0  0  0  0  0  0  0  0  0  0
    3.4294   -0.1219   -0.6280 C   0  0  2  0  0  0  0  0  0  0  0  0
    3.1903    0.5672   -1.8196 O   0  0  0  0  0  0  0  0  0  0  0  0
    4.6066   -0.8682   -0.7608 O   0  0  0  0  0  0  0  0  0  0  0  0
    5.6588   -0.1104   -0.5941 O   0  0  0  0  0  0  0  0  0  0  0  0
    5.5857    0.6562    0.5789 C   0  0  2  0  0  0  0  0  0  0  0  0
    4.5592    1.5882    0.3587 O   0  0  0  0  0  0  0  0  0  0  0  0
    6.9107    1.3407    0.7044 C   0  0  0  0  0  0  0  0  0  0  0  0
    7.2685    2.0648   -0.2211 O   0  0  0  0  0  0  0  0  0  0  0  0
  2  1  1  1
  2  3  1  0
  3  4  1  0
  4  5  1  6
  4  6  1  0
  6  7  1  6
  6  8  1  0
  8  9  1  6
  8 10  1  0
 10 11  1  1
 12 11  1  6
 12 13  1  0
 13 14  1  0
 14 15  1  0
 14 16  1  0
 14 17  1  0
 17 18  1  0
 18 19  1  6
 18 20  1  0
 20 21  1  1
 20 22  1  0
 22 23  1  6
 23 24  1  0
 24 25  1  0
 25 26  1  0
 26 27  1  6
 26 28  1  0
 28 29  1  0
 29 30  1  0
 30 31  1  6
 30 32  1  0
 32 33  2  0
 10  2  1  0
 22 12  1  0
M  END
>  <fragInfo>  (1) 
12 13 14 15 16 17 18 19 20 21 22
1 2 3 4 5 6 7 8 9 10
11
23
24
25
26 27
28
29
30 31
32 33


>  <torsionInfo>  (1) 
11 12 2 0
22 23 0 3
10 11 1 2
23 24 3 4
24 25 4 5
25 26 5 6
26 28 6 7
28 29 7 8
29 30 8 9
30 32 9 10


>  <atomInfo>  (1) 
1  -0.0608233C 
2  -0.0236277C 
3  -0.0201755C 
4  0.08280077C 
5  -0.3903155OA
6  0.10722523C 
7  -0.3876533OA
8  0.09792989C 
9  -0.3886791OA
10 0.03843894C 
11 -0.3052355NA
12 0.04713441C 
13 0.04721850C 
14 0.27930656C 
15 -0.3434116OA
16 -0.3434116OA
17 -0.3218103OA
18 0.08917229C 
19 -0.0357761C 
20 0.11103655C 
21 -0.3875066OA
22 0.13990512C 
23 -0.1981224OA
24 -0.0624114OA
25 -0.1415214OA
26 0.32965979C 
27 -0.3420890OA
28 -0.1687520OA
29 -0.1913996OA
30 0.24493923C 
31 -0.3600853OA
32 0.17831357C 
33 -0.2975706OA


$$$$
