
     RDKit          3D

 26 27  0  0  0  0  0  0  0  0999 V2000
    4.0901    2.1935   -0.6847 C   0  0  0  0  0  0  0  0  0  0  0  0
    4.1570    0.7507   -1.1753 C   0  0  1  0  0  0  0  0  0  0  0  0
    5.4097    0.0863   -0.6196 C   0  0  0  0  0  0  0  0  0  0  0  0
    5.4560    0.1180    0.8766 C   0  0  2  0  0  0  0  0  0  0  0  0
    6.4708   -0.7814    1.2714 O   0  0  0  0  0  0  0  0  0  0  0  0
    4.1670   -0.3422    1.5225 C   0  0  2  0  0  0  0  0  0  0  0  0
    4.0575   -1.7184    1.5732 O   0  0  0  0  0  0  0  0  0  0  0  0
    2.9487    0.2808    0.8794 C   0  0  1  0  0  0  0  0  0  0  0  0
    2.8619    1.6327    1.1513 O   0  0  0  0  0  0  0  0  0  0  0  0
    2.9792   -0.0113   -0.6070 C   0  0  1  0  0  0  0  0  0  0  0  0
    1.7527    0.3740   -1.2437 N   0  0  0  0  0  0  0  0  0  0  0  0
    0.6334   -0.3495   -0.7277 C   0  0  0  0  0  3  0  0  0  0  0  0
    0.8070   -0.7362    0.7039 C   0  0  0  0  0  0  0  0  0  0  0  0
   -0.3967   -1.4948    1.1998 C   0  0  1  0  0  0  0  0  0  0  0  0
   -0.2358   -1.8566    2.5372 O   0  0  0  0  0  0  0  0  0  0  0  0
   -1.6246   -0.6470    1.0941 C   0  0  0  0  0  3  0  0  0  0  0  0
   -1.8586   -0.2710   -0.2279 O   0  0  0  0  0  0  0  0  0  0  0  0
   -2.6516    0.8673   -0.2066 C   0  0  1  0  0  0  0  0  0  0  0  0
   -2.9668    1.3576   -1.4501 O   0  0  0  0  0  0  0  0  0  0  0  0
   -3.8706    0.6049    0.6481 C   0  0  2  0  0  0  0  0  0  0  0  0
   -3.5153    0.2852    1.9546 O   0  0  0  0  0  0  0  0  0  0  0  0
   -4.7030   -0.5506    0.0806 C   0  0  1  0  0  0  0  0  0  0  0  0
   -6.0384   -0.5008    0.8115 C   0  0  0  0  0  0  0  0  0  0  0  0
   -6.8456    0.3726   -0.1349 C   0  0  0  0  0  3  0  0  0  0  0  0
   -5.9941    0.6305   -1.2011 O   0  0  0  0  0  0  0  0  0  0  0  0
   -5.0899   -0.2940   -1.2219 O   0  0  0  0  0  0  0  0  0  0  0  0
  2  1  1  1
  2  3  1  0
  3  4  1  0
  4  5  1  1
  4  6  1  0
  6  7  1  6
  6  8  1  0
  8  9  1  6
  8 10  1  0
 10 11  1  6
 11 12  1  0
 12 13  1  0
 13 14  1  0
 14 15  1  1
 14 16  1  0
 16 17  1  0
 17 18  1  0
 18 19  1  6
 18 20  1  0
 20 21  1  1
 20 22  1  0
 22 23  1  1
 23 24  1  0
 24 25  1  0
 25 26  1  0
 10  2  1  0
 26 22  1  0
M  RAD  3  12   2  16   2  24   2
M  END
>  <fragInfo>  (1) 
1 2 3 4 5 6 7 8 9 10
11
12
13
14 15
16
17
18 19
20 21
22 23 24 25 26


>  <torsionInfo>  (1) 
10 11 0 1
11 12 1 2
12 13 2 3
13 14 3 4
14 16 4 5
16 17 5 6
17 18 6 7
18 20 7 8
20 22 8 9


>  <atomInfo>  (1) 
1  -0.0608233C 
2  -0.0236285C 
3  -0.0201755C 
4  0.08280077C 
5  -0.3903155OA
6  0.10722522C 
7  -0.3876533OA
8  0.09792914C 
9  -0.3886791OA
10 0.03839079C 
11 -0.3066599NA
12 0.02511904C 
13 -0.0073172C 
14 0.08448541C 
15 -0.3902500OA
16 0.11544407C 
17 -0.3412677OA
18 0.18361777C 
19 -0.3657306OA
20 0.13395719C 
21 -0.3849604OA
22 0.12643548C 
23 0.01164095C 
24 0.12499341C 
25 -0.2300030OA
26 -0.2299328OA


$$$$
