
     RDKit          2D

 77 77  0  0  0  0  0  0  0  0999 V2000
   14.3839   -1.2990    0.0000 C   0  0  0  0  0  0  0  0  0  0  0  0
   13.6339   -0.0000    0.0000 C   0  0  0  0  0  0  0  0  0  0  0  0
   14.3839    1.2990    0.0000 C   0  0  0  0  0  0  0  0  0  0  0  0
   12.1339   -0.0000    0.0000 C   0  0  0  0  0  0  0  0  0  0  0  0
   11.3839    1.2990    0.0000 C   0  0  0  0  0  0  0  0  0  0  0  0
    9.8839    1.2990    0.0000 C   0  0  0  0  0  0  0  0  0  0  0  0
    9.1339    2.5981    0.0000 C   0  0  0  0  0  0  0  0  0  0  0  0
    9.8839    3.8971    0.0000 C   0  0  0  0  0  0  0  0  0  0  0  0
    7.6339    2.5981    0.0000 C   0  0  0  0  0  3  0  0  0  0  0  0
    6.8839    1.2990    0.0000 C   0  0  0  0  0  0  0  0  0  0  0  0
    5.3839    1.2990    0.0000 C   0  0  0  0  0  0  0  0  0  0  0  0
    4.6339    0.0000    0.0000 C   0  0  0  0  0  0  0  0  0  0  0  0
    5.3839   -1.2990    0.0000 C   0  0  0  0  0  0  0  0  0  0  0  0
    3.1339    0.0000    0.0000 C   0  0  0  0  0  0  0  0  0  0  0  0
    2.7750    1.4564    0.0000 C   0  0  0  0  0  0  0  0  0  0  0  0
    4.1031    2.1535    0.0000 C   0  0  0  0  0  2  0  0  0  0  0  0
    1.7803    2.5792    0.0000 C   0  0  0  0  0  3  0  0  0  0  0  0
    0.3778    3.1111    0.0000 C   0  0  0  0  0  0  0  0  0  0  0  0
   -1.1113    2.9303    0.0000 C   0  0  0  0  0  0  0  0  0  0  0  0
   -1.6432    4.3328    0.0000 O   0  0  0  0  0  0  0  0  0  0  0  0
   -2.3458    2.0782    0.0000 C   0  0  0  0  0  3  0  0  0  0  0  0
   -3.0429    0.7500    0.0000 C   0  0  0  0  0  0  0  0  0  0  0  0
   -3.0429   -0.7500    0.0000 C   0  0  0  0  0  0  0  0  0  0  0  0
   -4.4993   -1.1090    0.0000 C   0  0  0  0  0  2  0  0  0  0  0  0
   -2.3458   -2.0782    0.0000 O   0  0  0  0  0  0  0  0  0  0  0  0
   -1.1113   -2.9303    0.0000 C   0  0  0  0  0  3  0  0  0  0  0  0
    0.3778   -3.1111    0.0000 C   0  0  0  0  0  0  0  0  0  0  0  0
    1.7803   -2.5792    0.0000 S   0  0  0  0  0  0  0  0  0  0  0  0
    2.7750   -1.4564    0.0000 C   0  0  0  0  0  0  0  0  0  0  0  0
    4.1031   -2.1535    0.0000 C   0  0  0  0  0  0  0  0  0  0  0  0
    4.1635   -3.6523    0.0000 C   0  0  0  0  0  3  0  0  0  0  0  0
    5.4917   -4.3494    0.0000 C   0  0  0  0  0  0  0  0  0  0  0  0
    6.7595   -3.5477    0.0000 C   0  0  0  0  0  0  0  0  0  0  0  0
    8.0877   -4.2448    0.0000 C   0  0  0  0  0  2  0  0  0  0  0  0
    6.6991   -2.0489    0.0000 C   0  0  0  0  0  0  0  0  0  0  0  0
    7.9669   -1.2472    0.0000 C   0  0  0  0  0  0  0  0  0  0  0  0
    7.9065    0.2516    0.0000 C   0  0  0  0  0  0  0  0  0  0  0  0
    9.2951   -1.9443    0.0000 C   0  0  0  0  0  0  0  0  0  0  0  0
    9.3555   -3.4431    0.0000 C   0  0  0  0  0  2  0  0  0  0  0  0
   10.5629   -1.1426    0.0000 O   0  0  0  0  0  0  0  0  0  0  0  0
   11.8911   -1.8397    0.0000 C   0  0  0  0  0  2  0  0  0  0  0  0
    5.5521   -5.8481    0.0000 C   0  0  0  0  0  0  0  0  0  0  0  0
    6.8803   -6.5452    0.0000 C   0  0  0  0  0  0  0  0  0  0  0  0
    6.9407   -8.0440    0.0000 C   0  0  0  0  0  2  0  0  0  0  0  0
    8.1481   -5.7435    0.0000 C   0  0  0  0  0  3  0  0  0  0  0  0
    9.4763   -6.4406    0.0000 C   0  0  0  0  0  0  0  0  0  0  0  0
   10.7441   -5.6389    0.0000 C   0  0  0  0  0  3  0  0  0  0  0  0
   12.0723   -6.3360    0.0000 C   0  0  0  0  0  2  0  0  0  0  0  0
   13.3400   -5.5343    0.0000 C   0  0  0  0  0  3  0  0  0  0  0  0
   14.6682   -6.2314    0.0000 C   0  0  0  0  0  0  0  0  0  0  0  0
   15.9360   -5.4297    0.0000 C   0  0  0  0  0  3  0  0  0  0  0  0
   17.2642   -6.1268    0.0000 C   0  0  0  0  0  0  0  0  0  0  0  0
   18.5320   -5.3251    0.0000 C   0  0  0  0  0  0  0  0  0  0  0  0
   19.8602   -6.0222    0.0000 C   0  0  0  0  0  3  0  0  0  0  0  0
   21.1279   -5.2205    0.0000 C   0  0  0  0  0  3  0  0  0  0  0  0
   22.4561   -5.9176    0.0000 C   0  0  0  0  0  0  0  0  0  0  0  0
   23.7239   -5.1159    0.0000 C   0  0  0  0  0  3  0  0  0  0  0  0
   25.0521   -5.8129    0.0000 C   0  0  0  0  0  0  0  0  0  0  0  0
   26.3199   -5.0112    0.0000 C   0  0  0  0  0  0  0  0  0  0  0  0
   27.6481   -5.7083    0.0000 C   0  0  0  0  0  0  0  0  0  0  0  0
   28.9159   -4.9066    0.0000 C   0  0  0  0  0  0  0  0  0  0  0  0
   30.2440   -5.6037    0.0000 C   0  0  0  0  0  2  0  0  0  0  0  0
   28.8555   -3.4078    0.0000 C   0  0  0  0  0  3  0  0  0  0  0  0
   30.1232   -2.6061    0.0000 C   0  0  0  0  0  3  0  0  0  0  0  0
   30.0628   -1.1074    0.0000 C   0  0  0  0  0  3  0  0  0  0  0  0
   31.3306   -0.3057    0.0000 C   0  0  0  0  0  0  0  0  0  0  0  0
   31.2702    1.1931    0.0000 C   0  0  0  0  0  2  0  0  0  0  0  0
   32.6588   -1.0027    0.0000 C   0  0  0  0  0  0  0  0  0  0  0  0
   33.9266   -0.2010    0.0000 C   0  0  0  0  0  0  0  0  0  0  0  0
   35.2548   -0.8981    0.0000 C   0  0  0  0  0  0  0  0  0  0  0  0
   36.5226   -0.0964    0.0000 C   0  0  0  0  0  0  0  0  0  0  0  0
   35.3152   -2.3969    0.0000 C   0  0  0  0  0  3  0  0  0  0  0  0
   36.6434   -3.0940    0.0000 S   0  0  0  0  0  0  0  0  0  0  0  0
   36.7038   -4.5928    0.0000 C   0  0  0  0  0  3  0  0  0  0  0  0
   38.0319   -5.2899    0.0000 O   0  0  0  0  0  0  0  0  0  0  0  0
   38.0923   -6.7886    0.0000 C   0  0  0  0  0  3  0  0  0  0  0  0
   39.4205   -7.4857    0.0000 C   0  0  0  0  0  0  0  0  0  0  0  0
  1  2  1  0
  2  3  1  0
  2  4  1  0
  4  5  1  0
  5  6  1  0
  6  7  1  0
  7  8  1  6
  7  9  1  0
  9 10  1  0
 10 11  1  0
 11 12  1  0
 12 13  1  6
 12 14  1  0
 14 15  1  0
 15 16  1  0
 15 17  1  0
 17 18  1  0
 18 19  1  0
 19 20  1  0
 19 21  1  0
 21 22  1  0
 22 23  1  0
 23 24  1  0
 23 25  1  0
 25 26  1  0
 26 27  1  0
 27 28  1  0
 28 29  1  0
 29 30  1  6
 30 31  1  0
 31 32  1  0
 32 33  1  0
 33 34  1  1
 33 35  1  0
 35 36  1  0
 36 37  1  6
 36 38  1  0
 38 39  1  1
 38 40  1  0
 40 41  1  0
 32 42  1  0
 42 43  1  0
 43 44  1  6
 43 45  1  0
 45 46  1  0
 46 47  1  0
 47 48  1  0
 48 49  1  0
 49 50  1  0
 50 51  1  0
 51 52  1  0
 52 53  1  0
 53 54  1  0
 54 55  1  0
 55 56  1  0
 56 57  1  0
 57 58  1  0
 58 59  1  0
 59 60  1  0
 60 61  1  0
 61 62  1  1
 61 63  1  0
 63 64  1  0
 64 65  1  0
 65 66  1  0
 66 67  1  1
 66 68  1  0
 68 69  1  0
 69 70  1  0
 70 71  1  6
 70 72  1  0
 72 73  1  0
 73 74  1  0
 74 75  1  0
 75 76  1  0
 76 77  1  0
 29 14  1  0
M  RAD  8   9   2  16   3  17   2  21   2  24   3  26   2  31   2  34   3
M  RAD  8  39   3  41   3  44   3  45   2  47   2  48   3  49   2  51   2
M  RAD  8  54   2  55   2  57   2  62   3  63   2  64   2  65   2  67   3
M  RAD  3  72   2  74   2  76   2
M  END
>  <fragInfo>  (1) 
14 15 16 17 18 19 20 21 22 23 24 25 26 27 28 29
1 2 3
4
5
6
7 8
9
10
11
12 13
30
31
32
33 34
35
36 37
38 39
40 41
42
43 44
45
46
47
48
49
50
51
52
53
54
55
56
57
58
59
60
61 62
63
64
65
66 67
68
69
70 71
72
73
74
75
76 77


>  <torsionInfo>  (1) 
12 14 9 0
29 30 0 10
2 4 1 2
4 5 2 3
5 6 3 4
6 7 4 5
7 9 5 6
9 10 6 7
10 11 7 8
11 12 8 9
30 31 10 11
31 32 11 12
32 33 12 13
32 42 12 18
33 35 13 14
35 36 14 15
36 38 15 16
38 40 16 17
42 43 18 19
43 45 19 20
45 46 20 21
46 47 21 22
47 48 22 23
48 49 23 24
49 50 24 25
50 51 25 26
51 52 26 27
52 53 27 28
53 54 28 29
54 55 29 30
55 56 30 31
56 57 31 32
57 58 32 33
58 59 33 34
59 60 34 35
60 61 35 36
61 63 36 37
63 64 37 38
64 65 38 39
65 66 39 40
66 68 40 41
68 69 41 42
69 70 42 43
70 72 43 44
72 73 44 45
73 74 45 46
74 75 46 47
75 76 47 48


>  <atomInfo>  (1) 
1  -0.0627736C 
2  -0.0471324C 
3  -0.0627736C 
4  -0.0509643C 
5  -0.0527983C 
6  -0.0504266C 
7  -0.0411603C 
8  -0.0622342C 
9  -0.0357403C 
10 -0.0496535C 
11 -0.0501119C 
12 -0.0400821C 
13 -0.0621937C 
14 -0.0234736C 
15 -0.0306459C 
16 -0.0311659C 
17 -0.0322949C 
18 -0.0233079C 
19 0.05753915C 
20 -0.3928164OA
21 -0.0073864C 
22 -0.0207384C 
23 0.06195462C 
24 -0.0035984C 
25 -0.3710662OA
26 0.09385580C 
27 0.02257025C 
28 -0.1554511SA
29 0.00844941C 
30 -0.0375892C 
31 -0.0340782C 
32 -0.0348448C 
33 -0.0345361C 
34 -0.0314926C 
35 -0.0448081C 
36 -0.0172247C 
37 -0.0600082C 
38 0.06423630C 
39 -0.0033242C 
40 -0.3687551OA
41 0.11546668C 
42 -0.0464777C 
43 -0.0346012C 
44 -0.0314938C 
45 -0.0348646C 
46 -0.0461690C 
47 -0.0306036C 
48 -0.0099551C 
49 -0.0306143C 
50 -0.0464549C 
51 -0.0382678C 
52 -0.0498876C 
53 -0.0496230C 
54 -0.0351711C 
55 -0.0349082C 
56 -0.0467751C 
57 -0.0382897C 
58 -0.0501618C 
59 -0.0527468C 
60 -0.0498654C 
61 -0.0345997C 
62 -0.0314937C 
63 -0.0314829C 
64 -0.0312084C 
65 -0.0314827C 
66 -0.0345892C 
67 -0.0314935C 
68 -0.0495814C 
69 -0.0493272C 
70 -0.0311161C 
71 -0.0614078C 
72 0.02218549C 
73 -0.1221117SA
74 0.13913592C 
75 -0.3582745OA
76 0.08230561C 
77 -0.0360521C 


$$$$
