
     RDKit          3D

 63 63  0  0  0  0  0  0  0  0999 V2000
   -7.0777    0.9562    1.2217 C   0  0  0  0  0  0  0  0  0  0  0  0
   -5.9300    1.1186    1.9839 O   0  0  0  0  0  0  0  0  0  0  0  0
   -4.9421    1.6526    1.1563 C   0  0  0  0  0  3  0  0  0  0  0  0
   -5.3132    1.5744   -0.1863 O   0  0  0  0  0  0  0  0  0  0  0  0
   -4.4044    2.3398   -0.9115 C   0  0  2  0  0  0  0  0  0  0  0  0
   -4.6402    2.2627   -2.3938 C   0  0  0  0  0  0  0  0  0  0  0  0
   -3.0263    1.9012   -0.5099 C   0  0  0  0  0  3  0  0  0  0  0  0
   -2.9625    0.5455    0.1016 C   0  0  1  0  0  0  0  0  0  0  0  0
   -3.2435   -0.5672   -0.9066 C   0  0  0  0  0  3  0  0  0  0  0  0
   -2.7471   -1.8916   -0.4204 C   0  0  0  0  0  0  0  0  0  0  0  0
   -3.8214   -2.7447    0.1720 C   0  0  0  0  0  3  0  0  0  0  0  0
   -4.7463   -3.1974   -0.9446 C   0  0  1  0  0  0  0  0  0  0  0  0
   -5.2890   -4.5768   -0.5779 C   0  0  0  0  0  0  0  0  0  0  0  0
   -4.1040   -5.4976   -0.4397 C   0  0  0  0  0  0  0  0  0  0  0  0
   -3.2251   -5.0788    0.5436 O   0  0  0  0  0  0  0  0  0  0  0  0
   -5.8546   -2.2427   -0.9738 N   0  0  0  0  0  0  0  0  0  0  0  0
   -6.6693   -2.5511   -1.9881 O   0  0  0  0  0  0  0  0  0  0  0  0
   -7.3666   -1.3944   -2.3392 C   0  0  0  0  0  3  0  0  0  0  0  0
   -8.7608   -1.7548   -2.7722 C   0  0  0  0  0  3  0  0  0  0  0  0
   -9.7028   -1.7756   -1.5759 C   0  0  0  0  0  3  0  0  0  0  0  0
   -9.6782   -0.5154   -0.9745 O   0  0  0  0  0  0  0  0  0  0  0  0
  -10.0319   -0.5758    0.3021 O   0  0  0  0  0  0  0  0  0  0  0  0
   -9.5812   -1.7565    0.8606 C   0  0  0  0  0  3  0  0  0  0  0  0
   -9.2390   -1.6245    2.3241 C   0  0  0  0  0  3  0  0  0  0  0  0
   -8.3191   -0.5752    2.5262 O   0  0  0  0  0  0  0  0  0  0  0  0
   -7.5842   -0.4688    1.3593 C   0  0  0  0  0  3  0  0  0  0  0  0
   -1.5397    0.3181    0.5700 C   0  0  0  0  0  0  0  0  0  0  0  0
   -0.7422    0.4198   -0.5943 O   0  0  0  0  0  0  0  0  0  0  0  0
    0.5694    0.1920   -0.1488 C   0  0  2  0  0  0  0  0  0  0  0  0
    0.6863   -1.1507    0.4776 C   0  0  0  0  0  3  0  0  0  0  0  0
   -0.1819   -1.3397    1.5321 O   0  0  0  0  0  0  0  0  0  0  0  0
   -0.2908   -2.5945    1.8350 O   0  0  0  0  0  0  0  0  0  0  0  0
    0.5185   -3.4361    1.1145 C   0  0  0  0  0  2  0  0  0  0  0  0
    0.9518    1.3045    0.6644 N   0  0  0  0  0  0  0  0  0  0  0  0
    2.3040    1.3233    1.0655 C   0  0  1  0  0  0  0  0  0  0  0  0
    2.5575    0.3805    2.0310 O   0  0  0  0  0  0  0  0  0  0  0  0
    1.8415    0.5418    3.1884 C   0  0  0  0  0  0  0  0  0  0  0  0
    2.1186    2.0743    4.0032 Cl  0  0  0  0  0  0  0  0  0  0  0  0
    3.2948    1.4165   -0.0413 C   0  0  1  0  0  0  0  0  0  0  0  0
    3.1145    2.6642   -0.8272 C   0  0  0  0  0  3  0  0  0  0  0  0
    1.8077    2.8496   -1.5000 C   0  0  0  0  0  3  0  0  0  0  0  0
    0.8148    3.6843   -0.7866 C   0  0  2  0  0  0  0  0  0  0  0  0
   -0.4529    3.8398   -1.5391 C   0  0  0  0  0  2  0  0  0  0  0  0
    1.2972    4.8214   -0.0908 N   0  0  0  0  0  0  0  0  0  0  0  0
    1.9084    5.8020   -0.9343 C   0  0  0  0  0  3  0  0  0  0  0  0
    3.1325    6.3471   -0.2283 C   0  0  0  0  0  3  0  0  0  0  0  0
    3.5243    7.6534   -0.8662 C   0  0  0  0  0  3  0  0  0  0  0  0
    2.9814    8.8435   -0.0900 C   0  0  0  0  0  3  0  0  0  0  0  0
    4.0276    9.7246    0.2595 O   0  0  0  0  0  0  0  0  0  0  0  0
    4.6900    1.4001    0.5448 C   0  0  0  0  0  3  0  0  0  0  0  0
    5.7637    1.4777   -0.5211 C   0  0  0  0  0  3  0  0  0  0  0  0
    6.2895    0.0643   -0.7490 C   0  0  0  0  0  3  0  0  0  0  0  0
    5.2558   -0.9601   -0.3401 C   0  0  0  0  0  3  0  0  0  0  0  0
    5.9245   -2.6192   -0.5096 S   0  0  0  0  0  0  0  0  0  0  0  0
    7.6166   -2.6342   -1.1188 C   0  0  0  0  0  0  0  0  0  0  0  0
    8.5880   -2.0155   -0.1377 C   0  0  0  0  0  3  0  0  0  0  0  0
    9.9775   -2.0893   -0.7468 C   0  0  0  0  0  0  0  0  0  0  0  0
   10.3302   -3.5424   -0.9860 C   0  0  1  0  0  0  0  0  0  0  0  0
   11.6352   -3.6926   -1.5637 N   0  0  0  0  0  0  0  0  0  0  0  0
   12.7868   -3.2311   -0.9163 N   0  0  0  0  0  0  0  0  0  0  0  0
   13.9123   -3.3463   -1.5236 N   0  0  0  0  0  0  0  0  0  0  0  0
   10.1618   -4.3251    0.2972 C   0  0  0  0  0  3  0  0  0  0  0  0
   11.0849   -3.7284    1.3440 C   0  0  0  0  0  2  0  0  0  0  0  0
  1  2  1  0
  2  3  1  0
  3  4  1  0
  4  5  1  0
  5  6  1  6
  5  7  1  0
  7  8  1  0
  8  9  1  0
  9 10  1  0
 10 11  1  0
 11 12  1  0
 12 13  1  1
 13 14  1  0
 14 15  1  0
 12 16  1  0
 16 17  1  0
 17 18  1  0
 18 19  1  0
 19 20  1  0
 20 21  1  0
 21 22  1  0
 22 23  1  0
 23 24  1  0
 24 25  1  0
 25 26  1  0
  8 27  1  6
 27 28  1  0
 28 29  1  0
 29 30  1  1
 30 31  1  0
 31 32  1  0
 32 33  1  0
 29 34  1  0
 35 34  1  6
 35 36  1  0
 36 37  1  0
 37 38  1  0
 35 39  1  0
 39 40  1  1
 40 41  1  0
 41 42  1  0
 42 43  1  6
 42 44  1  0
 44 45  1  0
 45 46  1  0
 46 47  1  0
 47 48  1  0
 48 49  1  0
 39 50  1  0
 50 51  1  0
 51 52  1  0
 52 53  1  0
 53 54  1  0
 54 55  1  0
 55 56  1  0
 56 57  1  0
 58 57  1  1
 58 59  1  0
 59 60  1  0
 60 61  2  0
 58 62  1  0
 62 63  1  0
 26  1  1  0
M  RAD  8   3   2   7   2   9   2  11   2  18   2  19   2  20   2  23   2
M  RAD  8  24   2  26   2  30   2  33   3  40   2  41   2  43   3  45   2
M  RAD  8  46   2  47   2  48   2  50   2  51   2  52   2  53   2  56   2
M  RAD  2  62   2  63   3
M  END
>  <fragInfo>  (1) 
1 2 3 4 5 6 7 8 9 10 11 12 16 17 18 19 20 21 22 23 24 25 26
13
14 15
27
28
29
30
31
32 33
34
35
36
37 38
39
40
41
42 43
44
45
46
47
48 49
50
51
52
53
54
55
56
57
58
59
60 61
62 63


>  <torsionInfo>  (1) 
8 27 0 3
12 13 0 1
13 14 1 2
27 28 3 4
28 29 4 5
29 30 5 6
29 34 5 9
30 31 6 7
31 32 7 8
34 35 9 10
35 36 10 11
35 39 10 13
36 37 11 12
39 40 13 14
39 50 13 22
40 41 14 15
41 42 15 16
42 44 16 17
44 45 17 18
45 46 18 19
46 47 19 20
47 48 20 21
50 51 22 23
51 52 23 24
52 53 24 25
53 54 25 26
54 55 26 27
55 56 27 28
56 57 28 29
57 58 29 30
58 59 30 31
58 62 30 33
59 60 31 32


>  <atomInfo>  (1) 
1  0.07891081C 
2  -0.3451220OA
3  0.20930792C 
4  -0.3445980OA
5  0.06160085C 
6  -0.0382520C 
7  -0.0041712C 
8  -0.0089619C 
9  -0.0324629C 
10 -0.0450507C 
11 -0.0188879C 
12 0.03752412C 
13 -0.0118122C 
14 0.04463409C 
15 -0.3963130OA
16 -0.1986679NA
17 -0.2949771OA
18 0.11345575C 
19 0.03015524C 
20 0.12850803C 
21 -0.2295788OA
22 -0.2270870OA
23 0.15354399C 
24 0.11915638C 
25 -0.3639934OA
26 0.10995662C 
27 0.05227593C 
28 -0.3599561OA
29 0.14218297C 
30 0.16543876C 
31 -0.2255671OA
32 -0.2268066OA
33 0.15699752C 
34 -0.2639970NA
35 0.11470689C 
36 -0.3472672OA
37 0.12246296C 
38 -0.0954722Cl
39 0.00549578C 
40 -0.0262381C 
41 -0.0174929C 
42 0.01398250C 
43 -0.0163296C 
44 -0.3087671NA
45 0.02618838C 
46 -0.0139014C 
47 -0.0022511C 
48 0.08367675C 
49 -0.3901076OA
50 -0.0275122C 
51 -0.0301710C 
52 -0.0207441C 
53 0.02032643C 
54 -0.1568024SA
55 -0.0032095C 
56 -0.0265786C 
57 -0.0269556C 
58 0.04940859C 
59 -0.2886289NA
60 -0.0824995NA
61 -0.1868467NA
62 -0.0108577C 
63 -0.0292476C 


$$$$
