
     RDKit          3D

 37 38  0  0  0  0  0  0  0  0999 V2000
    1.3427   -4.3857   -2.5642 C   0  0  0  0  0  0  0  0  0  0  0  0
   -0.0341   -4.2615   -2.3292 O   0  0  0  0  0  0  0  0  0  0  0  0
   -0.5046   -3.6613   -1.1689 C   0  0  0  0  0  0  0  0  0  0  0  0
   -1.2894   -2.5860   -1.2180 C   0  0  0  0  0  0  0  0  0  0  0  0
   -1.7976   -1.9350   -0.0429 C   0  0  0  0  0  0  0  0  0  0  0  0
   -1.9743   -0.5957    0.0143 C   0  0  0  0  0  0  0  0  0  0  0  0
   -2.4737   -0.0449    1.1970 C   0  0  0  0  0  0  0  0  0  0  0  0
   -2.8009    1.0411    1.7365 C   0  0  0  0  0  0  0  0  0  0  0  0
   -3.3309    1.0649    3.1790 C   0  0  0  0  0  0  0  0  0  0  0  0
   -3.3368   -0.2527    3.6268 O   0  0  0  0  0  0  0  0  0  0  0  0
   -3.7944   -0.3717    4.9174 C   0  0  0  0  0  0  0  0  0  0  0  0
   -5.2033    0.1520    4.9902 C   0  0  0  0  0  0  0  0  0  0  0  0
   -2.7380    2.3916    1.1339 C   0  0  2  0  0  0  0  0  0  0  0  0
   -2.7263    2.5034   -0.2859 N   0  0  0  0  0  0  0  0  0  0  0  0
   -1.7921    3.2827    1.8816 C   0  0  0  0  0  0  0  0  0  0  0  0
   -2.8790    4.0544    2.3484 N   0  0  0  0  0  3  0  0  0  0  0  0
   -3.7483    3.3475    1.7440 C   0  0  0  0  0  0  0  0  0  0  0  0
   -5.2281    3.3766    1.6251 C   0  0  0  0  0  0  0  0  0  0  0  0
   -5.6756    3.5709   -0.0724 Cl  0  0  0  0  0  0  0  0  0  0  0  0
   -1.6245    0.2323   -1.1730 C   0  0  0  0  0  2  0  0  0  0  0  0
   -0.2489    0.2116   -1.3856 O   0  0  0  0  0  0  0  0  0  0  0  0
    0.0147   -0.4968   -2.4623 O   0  0  0  0  0  0  0  0  0  0  0  0
    1.3162   -0.4535   -2.7962 N   0  0  0  0  0  3  0  0  0  0  0  0
    1.9322    0.4451   -1.9623 N   0  0  0  0  0  4  0  0  0  0  0  0
    2.4610    1.2078   -1.2670 C   0  0  0  0  0  0  0  0  0  0  0  0
    3.0932    2.0985   -0.4251 O   0  0  0  0  0  0  0  0  0  0  0  0
    4.1194    2.8514   -0.9459 N   0  0  0  0  0  2  0  0  0  0  0  0
    5.3375    2.3156   -0.4828 C   0  0  0  0  0  0  0  0  0  0  0  0
    5.3933    0.9802   -0.0350 N   0  0  0  0  0  1  0  0  0  0  0  0
    6.3569    3.0165   -0.4695 N   0  0  0  0  0  4  0  0  0  0  0  0
    7.3827    3.6531   -0.6197 N   0  0  0  0  0  2  0  0  0  0  0  0
    1.9633   -1.7533   -2.5810 C   0  0  0  0  0  0  0  0  0  0  0  0
    2.0642   -1.9340   -1.1068 C   0  0  0  0  0  0  0  0  0  0  0  0
    2.1208   -3.1410   -0.5911 C   0  0  0  0  0  0  0  0  0  0  0  0
    2.0946   -4.3445   -1.3255 N   0  0  0  0  0  4  0  0  0  0  0  0
    2.7128   -5.3188   -0.8861 N   0  0  0  0  0  4  0  0  0  0  0  0
    3.4954   -6.2608   -0.6616 N   0  0  0  0  0  2  0  0  0  0  0  0
  1  2  1  0
  2  3  1  0
  3  4  2  3
  4  5  1  0
  5  6  2  3
  6  7  1  0
  7  8  2  3
  8  9  1  0
  9 10  1  0
 10 11  1  0
 11 12  1  0
  8 13  1  0
 13 14  1  6
 13 15  1  0
 15 16  1  0
 16 17  2  0
 17 18  1  0
 18 19  1  0
  6 20  1  0
 20 21  1  0
 21 22  1  0
 22 23  1  0
 23 24  1  0
 24 25  3  0
 25 26  1  0
 26 27  1  0
 27 28  1  0
 28 29  1  0
 28 30  2  0
 30 31  2  0
 23 32  1  0
 32 33  1  0
 33 34  2  3
 34 35  1  0
 35 36  2  0
 36 37  2  0
 35  1  1  0
 17 13  1  0
M  CHG  8  16   1  23   1  24   1  27   1  29   1  30   1  31   1  35   1
M  CHG  2  36   1  37  -1
M  RAD  6  16   2  20   3  23   2  27   3  29   2  31   3
M  END
>  <fragInfo>  (1) 
1 2 3 4 5 6 20 21 22 23 24 25 26 32 33 34 35 36 37
7 8
9
10
11 12
13 14 15 16 17
18 19
27
28 29 30 31


>  <torsionInfo>  (1) 
6 7 0 1
26 27 0 7
8 9 1 2
8 13 1 5
9 10 2 3
10 11 3 4
17 18 5 6
27 28 7 8


>  <atomInfo>  (1) 
1  0.23356866C 
2  -0.4736326OA
3  0.08591283C 
4  -0.0270373C 
5  -0.0527073C 
6  -0.0053352C 
7  -0.0515683C 
8  -0.0072334C 
9  0.07052452C 
10 -0.3772978OA
11 0.04416895C 
12 -0.0415476C 
13 0.19448209C 
14 -0.3073451NA
15 0.24210414C 
16 0.02192995N 
17 0.26852794C 
18 0.11185622C 
19 -0.1149077Cl
20 0.21457521C 
21 -0.1541132OA
22 0.11167693OA
23 0.41512064N 
24 0.33005711N 
25 0.67695584C 
26 -0.0341111OA
27 0.57532667N 
28 1.08788053C 
29 0.67648943N 
30 0.55160942N 
31 0.98036676N 
32 0.27512971C 
33 0.01053260C 
34 0.08918553C 
35 0.01618444N 
36 0.23073162N 
37 0.35370126NA


$$$$
