
     RDKit          2D

 46 51  0  0  0  0  0  0  0  0999 V2000
    5.4786   -1.2990    0.0000 C   0  0  0  0  0  0  0  0  0  0  0  0
    3.9786   -1.2990    0.0000 C   0  0  0  0  0  3  0  0  0  0  0  0
    3.2286   -0.0000    0.0000 C   0  0  0  0  0  0  0  0  0  0  0  0
    1.7286    0.0000    0.0000 C   0  0  0  0  0  0  0  0  0  0  0  0
    1.0777    1.3515    0.0000 C   0  0  0  0  0  0  0  0  0  0  0  0
   -0.3846    1.6852    0.0000 C   0  0  0  0  0  0  0  0  0  0  0  0
   -1.5574    0.7500    0.0000 C   0  0  0  0  0  0  0  0  0  0  0  0
   -1.5574   -0.7500    0.0000 C   0  0  0  0  0  0  0  0  0  0  0  0
   -2.9537   -1.2980    0.0000 C   0  0  0  0  0  0  0  0  0  0  0  0
   -3.1773   -2.7813    0.0000 C   0  0  0  0  0  0  0  0  0  0  0  0
   -4.5736   -3.3293    0.0000 O   0  0  0  0  0  0  0  0  0  0  0  0
   -2.0045   -3.7165    0.0000 C   0  0  0  0  0  0  0  0  0  0  0  0
   -0.6082   -3.1685    0.0000 C   0  0  0  0  0  0  0  0  0  0  0  0
   -0.3846   -1.6852    0.0000 C   0  0  0  0  0  0  0  0  0  0  0  0
    0.7149   -2.7055    0.0000 C   0  0  0  0  0  0  0  0  0  0  0  0
    1.0777   -1.3515    0.0000 C   0  0  0  0  0  0  0  0  0  0  0  0
    2.0130   -2.5242    0.0000 C   0  0  0  0  0  0  0  0  0  0  0  0
    0.7634    0.1152    0.0000 C   0  0  0  0  0  0  0  0  0  0  0  0
    1.9484    1.0348    0.0000 O   0  0  0  0  0  0  0  0  0  0  0  0
   -0.5793    0.7839    0.0000 C   0  0  0  0  0  0  0  0  0  0  0  0
   -1.9393    0.1511    0.0000 C   0  0  0  0  0  0  0  0  0  0  0  0
   -1.4278   -0.0593    0.0000 C   0  0  0  0  0  0  0  0  0  0  0  0
   -4.4504    1.0673    0.0000 C   0  0  0  0  0  0  0  0  0  0  0  0
   -1.3472    0.6563    0.0000 C   0  0  0  0  0  0  0  0  0  0  0  0
   -0.7478    0.2572    0.0000 C   0  0  0  0  0  0  0  0  0  0  0  0
    0.3369    3.2950    0.0000 C   0  0  0  0  0  0  0  0  0  0  0  0
    0.0006    4.7568    0.0000 C   0  0  0  0  0  0  0  0  0  0  0  0
    1.0984    5.7790    0.0000 C   0  0  0  0  0  0  0  0  0  0  0  0
    0.7622    7.2408    0.0000 C   0  0  0  0  0  0  0  0  0  0  0  0
    1.8600    8.2629    0.0000 C   0  0  0  0  0  0  0  0  0  0  0  0
    3.2245    7.6398    0.0000 C   0  0  0  0  0  0  0  0  0  0  0  0
    4.6299    8.1640    0.0000 C   0  0  0  0  0  0  0  0  0  0  0  0
    5.2530    9.5285    0.0000 C   0  0  0  0  0  0  0  0  0  0  0  0
    4.7288   10.9339    0.0000 C   0  0  0  0  0  0  0  0  0  0  0  0
    3.3643   11.5570    0.0000 N   0  0  0  0  0  0  0  0  0  0  0  0
    1.9589   11.0328    0.0000 C   0  0  0  0  0  0  0  0  0  0  0  0
    1.0888   12.2546    0.0000 C   0  0  0  0  0  0  0  0  0  0  0  0
    1.7119   13.6191    0.0000 C   0  0  0  0  0  0  0  0  0  0  0  0
   -0.4044   12.1121    0.0000 C   0  0  0  0  0  0  0  0  0  0  0  0
   -1.0275   10.7476    0.0000 C   0  0  0  0  0  0  0  0  0  0  0  0
   -0.1574    9.5257    0.0000 C   0  0  0  0  0  0  0  0  0  0  0  0
    1.3358    9.6683    0.0000 C   0  0  0  0  0  0  0  0  0  0  0  0
    0.5399    8.3969    0.0000 C   0  0  0  0  0  0  0  0  0  0  0  0
   -0.9591    8.4504    0.0000 N   0  0  0  0  0  0  0  0  0  0  0  0
   -1.7550    7.1790    0.0000 C   0  0  0  0  0  0  0  0  0  0  0  0
   -3.2540    7.2325    0.0000 C   0  0  0  0  0  0  0  0  0  0  0  0
  1  2  1  0
  2  3  1  0
  3  4  1  0
  4  5  1  0
  5  6  1  0
  6  7  1  0
  7  8  1  0
  8  9  2  0
  9 10  1  0
 10 11  2  0
 10 12  1  0
 12 13  2  0
 13 14  1  0
 14 15  1  6
 14 16  1  0
 16 17  1  6
 16 18  1  0
 18 19  1  6
 18 20  1  0
 20 21  1  0
 21 22  1  0
 22 23  1  0
 22 24  1  0
 24 25  1  0
 25 26  1  1
 26 27  1  0
 27 28  1  0
 28 29  1  0
 29 30  1  0
 30 31  1  0
 31 32  1  0
 32 33  1  0
 33 34  1  0
 34 35  1  0
 35 36  1  0
 36 37  1  0
 37 38  1  0
 37 39  1  0
 39 40  1  0
 40 41  1  0
 41 42  1  0
 42 43  1  0
 43 44  1  0
 44 45  1  0
 45 46  1  0
 16  4  1  0
 14  8  1  0
 21  9  1  0
 25 20  1  0
 42 30  1  0
 42 36  1  0
M  RAD  1   2   2
M  END
>  <fragInfo>  (1) 
4 5 6 7 8 9 10 11 12 13 14 15 16 17 18 19 20 21 22 23 24 25
1 2
3
26
27
28
29
30 31 32 33 34 35 36 37 38 39 40 41 42
43
44
45 46


>  <torsionInfo>  (1) 
3 4 2 0
25 26 0 3
2 3 1 2
26 27 3 4
27 28 4 5
28 29 5 6
29 30 6 7
42 43 7 8
43 44 8 9
44 45 9 10


>  <atomInfo>  (1) 
1  -0.0622441C 
2  -0.0414015C 
3  -0.0469389C 
4  -0.0321168C 
5  -0.0494712C 
6  -0.0492143C 
7  -0.0303983C 
8  -0.0524442C 
9  0.00326646C 
10 0.18131913C 
11 -0.2896558OA
12 -0.0174329C 
13 -0.0699854C 
14 0.01553279C 
15 -0.0516681C 
16 0.00919345C 
17 -0.0557400C 
18 0.06440407C 
19 -0.3921810OA
20 -0.0045408C 
21 -0.0041813C 
22 -0.0365814C 
23 -0.0618998C 
24 -0.0468728C 
25 -0.0352238C 
26 -0.0500540C 
27 -0.0530192C 
28 -0.0530095C 
29 -0.0498102C 
30 -0.0330292C 
31 -0.0497633C 
32 -0.0518111C 
33 -0.0406491C 
34 -0.0045960C 
35 -0.3131019NA
36 0.01638754C 
37 -0.0282126C 
38 -0.0609994C 
39 -0.0491822C 
40 -0.0523485C 
41 -0.0445957C 
42 0.00119966C 
43 0.00253814C 
44 -0.3163833NA
45 -0.0077151C 
46 -0.0526818C 


$$$$
