
     RDKit          3D

 48 51  0  0  0  0  0  0  0  0999 V2000
   -0.6721    0.5001    1.3365 C   0  0  0  0  0  0  0  0  0  0  0  0
   -0.5241    1.2158    2.4737 C   0  0  0  0  0  0  0  0  0  0  0  0
   -1.4786    1.5880    3.5264 C   0  0  0  0  0  0  0  0  0  0  0  0
   -2.8199    0.9558    3.3250 C   0  0  0  0  0  0  0  0  0  0  0  0
   -2.6921   -0.5375    3.3256 C   0  0  1  0  0  0  0  0  0  0  0  0
   -3.9679   -1.1008    3.9296 C   0  0  0  0  0  0  0  0  0  0  0  0
   -4.0553   -2.5918    3.8341 C   0  0  0  0  0  0  0  0  0  0  0  0
   -3.9981   -0.6853    5.3854 C   0  0  0  0  0  0  0  0  0  0  0  0
   -5.1603   -0.5018    3.1715 C   0  0  0  0  0  0  0  0  0  0  0  0
   -4.8385   -0.6224    1.6854 C   0  0  0  0  0  0  0  0  0  0  0  0
   -3.7653   -1.6815    1.4501 C   0  0  0  0  0  0  0  0  0  0  0  0
   -2.4569   -1.1085    1.9400 C   0  0  0  0  0  3  0  0  0  0  0  0
   -1.9972   -0.0708    0.9696 C   0  0  1  0  0  0  0  0  0  0  0  0
   -2.9490    1.1442    0.9731 C   0  0  0  0  0  0  0  0  0  0  0  0
   -1.9488   -0.6662   -0.4100 C   0  0  0  0  0  0  0  0  0  0  0  0
   -2.4907    0.2870   -1.4066 C   0  0  0  0  0  0  0  0  0  0  0  0
   -2.7629   -0.1572   -2.6388 C   0  0  0  0  0  0  0  0  0  0  0  0
   -3.2966    0.8085   -3.5964 C   0  0  0  0  0  0  0  0  0  0  0  0
   -3.5758    0.4581   -4.7594 O   0  0  0  0  0  0  0  0  0  0  0  0
   -2.5674   -1.4553   -3.0392 O   0  0  0  0  0  0  0  0  0  0  0  0
   -1.4749   -2.2510   -2.6671 C   0  0  0  0  0  0  0  0  0  0  0  0
   -1.7025   -3.4490   -2.2800 O   0  0  0  0  0  0  0  0  0  0  0  0
   -0.1941   -1.8191   -2.6956 O   0  0  0  0  0  0  0  0  0  0  0  0
    0.5383   -1.1885   -3.6846 C   0  0  0  0  0  0  0  0  0  0  0  0
    0.3697    0.2743   -3.5582 C   0  0  0  0  0  0  0  0  0  0  0  0
    1.1325    1.1068   -2.9311 C   0  0  0  0  0  0  0  0  0  0  0  0
    2.3199    0.8517   -2.2041 N   0  0  0  0  0  0  0  0  0  0  0  0
    3.3636    1.8587   -2.2462 C   0  0  0  0  0  0  0  0  0  0  0  0
    2.7796    3.1941   -1.8634 C   0  0  2  0  0  0  0  0  0  0  0  0
    3.3744    4.3091   -2.6042 C   0  0  0  0  0  0  0  0  0  0  0  0
    2.7907    5.4743   -2.8295 C   0  0  0  0  0  0  0  0  0  0  0  0
    1.1363    5.8790   -2.2468 S   0  0  0  0  0  0  0  0  0  0  0  0
    1.3660    6.8913   -0.8058 C   0  0  0  0  0  0  0  0  0  0  0  0
    1.5212    7.5884    0.1509 C   0  0  0  0  0  0  0  0  0  0  0  0
    2.5316   -0.2896   -1.5018 C   0  0  0  0  0  0  0  0  0  0  0  0
    2.0734   -1.0258   -0.5831 C   0  0  0  0  0  0  0  0  0  0  0  0
    0.8830   -0.7933    0.1724 C   0  0  0  0  0  0  0  0  0  0  0  0
    0.5159    0.3893    0.6048 N   0  0  0  0  0  4  0  0  0  0  0  0
    1.2904    1.5153    0.3115 C   0  0  0  0  0  0  0  0  0  0  0  0
    2.5885    1.6953    0.5544 C   0  0  0  0  0  0  0  0  0  0  0  0
    3.1200    3.3526   -0.0516 S   0  0  0  0  0  0  0  0  0  0  0  0
    2.8834   -2.2687   -0.2814 C   0  0  0  0  0  0  0  0  0  0  0  0
    3.3545   -2.2493    1.1346 C   0  0  0  0  0  0  0  0  0  0  0  0
    3.6531   -3.4299    1.6689 C   0  0  0  0  0  0  0  0  0  0  0  0
    3.8705   -4.6918    1.8899 C   0  0  0  0  0  0  0  0  0  0  0  0
    2.8419   -5.4815    2.4237 N   0  0  0  0  0  1  0  0  0  0  0  0
    5.1793   -5.2713    1.5723 C   0  0  0  0  0  0  0  0  0  0  0  0
    5.9117   -5.9498    3.0755 S   0  0  0  0  0  0  0  0  0  0  0  0
  1  2  2  0
  2  3  1  0
  3  4  1  0
  5  4  1  6
  5  6  1  0
  6  7  1  0
  6  8  1  0
  6  9  1  0
  9 10  1  0
 10 11  1  0
 11 12  1  0
 12 13  1  0
 13 14  1  6
 13 15  1  0
 15 16  1  0
 16 17  2  0
 17 18  1  0
 18 19  2  0
 17 20  1  0
 20 21  1  0
 21 22  2  0
 21 23  1  0
 23 24  1  0
 24 25  1  0
 25 26  2  3
 26 27  1  0
 27 28  1  0
 29 28  1  6
 29 30  1  0
 30 31  2  3
 31 32  1  0
 32 33  1  0
 33 34  3  0
 27 35  1  0
 35 36  2  3
 36 37  1  0
 37 38  2  3
 38 39  1  0
 39 40  2  3
 40 41  1  0
 36 42  1  0
 42 43  1  0
 43 44  2  0
 44 45  2  0
 45 46  1  0
 45 47  1  0
 47 48  1  0
 13  1  1  0
 38  1  1  0
 12  5  1  0
 41 29  1  0
M  CHG  2  38   1  46   1
M  RAD  2  12   2  46   2
M  END
>  <fragInfo>  (1) 
1 2 3 4 5 6 7 8 9 10 11 12 13 14 15 16 17 20 21 22 23 24 25 26 27 28 29 35 36 37 38 39 40 41
18 19
30 31
32 33 34
42
43 44 45 46
47 48


>  <torsionInfo>  (1) 
17 18 0 1
29 30 0 2
36 42 0 4
31 32 2 3
42 43 4 5
45 47 5 6


>  <atomInfo>  (1) 
1  0.18927315C 
2  -0.0160860C 
3  -0.0282796C 
4  -0.0456218C 
5  -0.0286352C 
6  -0.0319915C 
7  -0.0596221C 
8  -0.0596221C 
9  -0.0478174C 
10 -0.0521899C 
11 -0.0456210C 
12 -0.0038041C 
13 0.06233290C 
14 -0.0487806C 
15 -0.0150370C 
16 -0.0367988C 
17 0.16977662C 
18 0.18476647C 
19 -0.2944198OA
20 -0.3918544OA
21 0.51376543C 
22 -0.2026851OA
23 -0.4296813OA
24 0.11485309C 
25 -0.0307983C 
26 0.00289149C 
27 -0.3525023N 
28 0.03772426C 
29 0.04580101C 
30 -0.0621321C 
31 -0.0189220C 
32 -0.0471951SA
33 -0.0333221C 
34 -0.1076822C 
35 0.01301625C 
36 0.03687310C 
37 0.17925670C 
38 -0.1699417N 
39 0.18057072C 
40 0.03591291C 
41 -0.1183942SA
42 0.00548798C 
43 -0.0312022C 
44 -0.0429052C 
45 0.36407980C 
46 0.47868275N 
47 0.09305151C 
48 -0.1673780SA


$$$$
