
     RDKit          3D

 43 48  0  0  0  0  0  0  0  0999 V2000
   -4.2455    0.7186   -1.8946 C   0  0  0  0  0  0  0  0  0  0  0  0
   -5.6140    0.5990   -2.5322 C   0  0  0  0  0  3  0  0  0  0  0  0
   -6.4437    1.8315   -2.3892 C   0  0  0  0  0  0  0  0  0  0  0  0
   -7.2727    1.7557   -1.1019 C   0  0  0  0  0  3  0  0  0  0  0  0
   -8.1715    0.5825   -1.1992 C   0  0  0  0  0  0  0  0  0  0  0  0
   -9.1981    0.5284   -0.5602 O   0  0  0  0  0  0  0  0  0  0  0  0
   -7.8123   -0.5406   -2.0890 C   0  0  0  0  0  0  0  0  0  0  0  0
   -6.3237   -0.6678   -2.1144 C   0  0  2  0  0  0  0  0  0  0  0  0
   -5.8588   -1.0383   -0.7121 C   0  0  0  0  0  0  0  0  0  0  0  0
   -4.4208   -1.4655   -0.8052 C   0  0  0  0  0  3  0  0  0  0  0  0
   -3.6541   -0.6479   -1.8108 C   0  0  2  0  0  0  0  0  0  0  0  0
   -2.1633   -0.6445   -1.5447 C   0  0  2  0  0  0  0  0  0  0  0  0
   -1.6868   -2.1033   -1.4827 C   0  0  0  0  0  0  0  0  0  0  0  0
   -2.1298   -2.0737   -0.0140 C   0  0  1  0  0  0  0  0  0  0  0  0
   -1.2317   -2.8854    0.8519 C   0  0  0  0  0  2  0  0  0  0  0  0
   -1.9086   -0.5947   -0.0420 C   0  0  1  0  0  0  0  0  0  0  0  0
   -0.5504   -0.0988    0.3179 C   0  0  2  0  0  0  0  0  0  0  0  0
    0.0519    0.7493   -0.8019 C   0  0  0  0  0  0  0  0  0  0  0  0
   -0.8443    1.9465   -1.0637 C   0  0  0  0  0  3  0  0  0  0  0  0
   -0.2431    2.6764   -2.0900 O   0  0  0  0  0  0  0  0  0  0  0  0
   -2.9872    0.2366    0.6203 C   0  0  0  0  0  3  0  0  0  0  0  0
   -2.5149    0.8018    1.9419 C   0  0  0  0  0  0  0  0  0  0  0  0
   -2.0549   -0.2951    2.8815 C   0  0  0  0  0  2  0  0  0  0  0  0
   -0.8481    0.1847    3.6585 C   0  0  0  0  0  3  0  0  0  0  0  0
    0.3986    0.1656    2.8037 C   0  0  0  0  0  3  0  0  0  0  0  0
    0.6711   -1.1831    2.2180 C   0  0  0  0  0  0  0  0  0  0  0  0
    0.4132   -1.1698    0.7281 C   0  0  2  0  0  0  0  0  0  0  0  0
    1.6959   -1.1387   -0.0679 C   0  0  0  0  0  2  0  0  0  0  0  0
    2.8106   -0.5419    0.7403 C   0  0  0  0  0  0  0  0  0  0  0  0
    2.7067    0.8490    0.7605 O   0  0  0  0  0  0  0  0  0  0  0  0
    3.7031    1.4518    1.4876 C   0  0  0  0  0  3  0  0  0  0  0  0
    5.0627    0.8082    1.3072 C   0  0  2  0  0  0  0  0  0  0  0  0
    5.4354    0.8789   -0.1183 C   0  0  0  0  0  3  0  0  0  0  0  0
    4.4064    0.8664   -1.0194 O   0  0  0  0  0  0  0  0  0  0  0  0
    6.6832    0.2167   -0.5339 C   0  0  1  0  0  0  0  0  0  0  0  0
    7.8383    1.1421   -0.8103 C   0  0  0  0  0  3  0  0  0  0  0  0
    9.0527    0.2634   -0.6224 C   0  0  0  0  0  0  0  0  0  0  0  0
    8.5778   -1.0073   -0.1100 N   0  0  0  0  0  0  0  0  0  0  0  0
    7.2616   -0.7751    0.4098 C   0  0  2  0  0  0  0  0  0  0  0  0
    6.4840   -1.9137    0.4662 O   0  0  0  0  0  0  0  0  0  0  0  0
    5.5284   -1.7755    1.4364 N   0  0  0  0  0  0  0  0  0  0  0  0
    5.0094   -0.5352    1.8946 C   0  0  0  0  0  0  0  0  0  0  0  0
    4.3878   -0.5785    3.0055 O   0  0  0  0  0  0  0  0  0  0  0  0
  1  2  1  0
  2  3  1  0
  3  4  1  0
  4  5  1  0
  5  6  2  0
  5  7  1  0
  8  7  1  1
  8  9  1  0
  9 10  1  0
 11 10  1  1
 11 12  1  0
 12 13  1  1
 13 14  1  0
 14 15  1  1
 14 16  1  0
 16 17  1  0
 17 18  1  6
 18 19  1  0
 19 20  1  0
 16 21  1  1
 21 22  1  0
 22 23  1  0
 23 24  1  0
 24 25  1  0
 25 26  1  0
 26 27  1  0
 27 28  1  6
 28 29  1  0
 29 30  1  0
 30 31  1  0
 32 31  1  6
 32 33  1  0
 33 34  1  0
 33 35  1  0
 35 36  1  1
 36 37  1  0
 37 38  1  0
 39 38  1  6
 39 40  1  0
 40 41  1  0
 41 42  1  0
 42 43  2  0
 11  1  1  0
  8  2  1  0
 16 12  1  0
 27 17  1  0
 42 32  1  0
 39 35  1  0
M  RAD  8   2   2   4   2  10   2  15   3  19   2  21   2  23   3  24   2
M  RAD  5  25   2  28   3  31   2  33   2  36   2
M  END
>  <fragInfo>  (1) 
12 13 14 15 16 17 21 22 23 24 25 26 27
1 2 3 4 5 6 7 8 9 10 11
18
19 20
28
29
30
31
32 33 34 35 36 37 38 39 40 41 42 43


>  <torsionInfo>  (1) 
11 12 1 0
17 18 0 2
27 28 0 4
18 19 2 3
28 29 4 5
29 30 5 6
30 31 6 7
31 32 7 8


>  <atomInfo>  (1) 
1  -0.0433333C 
2  -0.0195263C 
3  -0.0362625C 
4  0.02792745C 
5  0.13651639C 
6  -0.2993647OA
7  0.00979208C 
8  -0.0279686C 
9  -0.0460632C 
10 -0.0348518C 
11 -0.0343248C 
12 -0.0314859C 
13 -0.0459045C 
14 -0.0312110C 
15 -0.0311857C 
16 -0.0171612C 
17 -0.0288527C 
18 -0.0207527C 
19 0.08017270C 
20 -0.3904248OA
21 -0.0309139C 
22 -0.0424754C 
23 -0.0130372C 
24 -0.0277939C 
25 -0.0342692C 
26 -0.0460679C 
27 -0.0284489C 
28 0.01438108C 
29 0.05432802C 
30 -0.3738976OA
31 0.09915360C 
32 0.10084370C 
33 0.11588044C 
34 -0.3854252OA
35 0.03812361C 
36 -0.0145468C 
37 0.00127705C 
38 -0.2893450NA
39 0.14174937C 
40 -0.2543054OA
41 -0.2327130N 
42 0.25199658C 
43 -0.2722553OA


$$$$
