
     RDKit          3D

 24 25  0  0  0  0  0  0  0  0999 V2000
    2.7052   -1.9254    1.9551 C   0  0  0  0  0  0  0  0  0  0  0  0
    2.1791   -0.5340    1.6910 C   0  0  1  0  0  0  0  0  0  0  0  0
    3.2631    0.5043    1.7244 C   0  0  0  0  0  0  0  0  0  0  0  0
    3.9609    0.6875    0.4048 C   0  0  2  0  0  0  0  0  0  0  0  0
    3.4999    1.8300   -0.2396 O   0  0  0  0  0  0  0  0  0  0  0  0
    3.7496   -0.5428   -0.4349 C   0  0  2  0  0  0  0  0  0  0  0  0
    4.4861   -0.4072   -1.6020 O   0  0  0  0  0  0  0  0  0  0  0  0
    2.2943   -0.6615   -0.7930 C   0  0  1  0  0  0  0  0  0  0  0  0
    2.0685   -1.8859   -1.4215 O   0  0  0  0  0  0  0  0  0  0  0  0
    1.3888   -0.4560    0.4172 C   0  0  1  0  0  0  0  0  0  0  0  0
    0.2782   -1.3547    0.3865 N   0  0  0  0  0  0  0  0  0  0  0  0
   -0.9930   -0.7866    0.1205 C   0  0  1  0  0  0  0  0  0  0  0  0
   -1.7360   -0.4996    1.4093 C   0  0  0  0  0  0  0  0  0  0  0  0
   -3.2179   -0.8592    1.3000 C   0  0  2  0  0  0  0  0  0  0  0  0
   -3.8950   -0.0583    2.2313 O   0  0  0  0  0  0  0  0  0  0  0  0
   -3.4948   -2.3174    1.4796 C   0  0  0  0  0  0  0  0  0  0  0  0
   -3.6071   -0.3800    0.0369 O   0  0  0  0  0  0  0  0  0  0  0  0
   -3.2502    0.9573    0.0386 C   0  0  2  0  0  0  0  0  0  0  0  0
   -4.3264    1.7727   -0.3235 O   0  0  0  0  0  0  0  0  0  0  0  0
   -2.0959    1.3012   -0.8243 C   0  0  2  0  0  0  0  0  0  0  0  0
   -2.4565    1.6045   -2.2578 C   0  0  0  0  0  2  0  0  0  0  0  0
   -0.9485    0.4152   -0.7791 C   0  0  1  0  0  0  0  0  0  0  0  0
    0.2306    1.1553   -0.6257 O   0  0  0  0  0  0  0  0  0  0  0  0
   -0.0831    2.4406   -0.4271 O   0  0  0  0  0  0  0  0  0  0  0  0
  2  1  1  6
  2  3  1  0
  3  4  1  0
  4  5  1  6
  4  6  1  0
  6  7  1  6
  6  8  1  0
  8  9  1  1
  8 10  1  0
 10 11  1  1
 12 11  1  1
 12 13  1  0
 13 14  1  0
 14 15  1  0
 14 16  1  6
 14 17  1  0
 17 18  1  0
 18 19  1  6
 18 20  1  0
 20 21  1  6
 20 22  1  0
 22 23  1  1
 23 24  1  0
 10  2  1  0
 22 12  1  0
M  RAD  1  21   3
M  END
>  <fragInfo>  (1) 
12 13 14 15 16 17 18 19 20 21 22
1 2 3 4 5 6 7 8 9 10
11
23 24


>  <torsionInfo>  (1) 
11 12 2 0
22 23 0 3
10 11 1 2


>  <atomInfo>  (1) 
1  -0.0608233C 
2  -0.0236278C 
3  -0.0201755C 
4  0.08280077C 
5  -0.3903155OA
6  0.10722523C 
7  -0.3876533OA
8  0.09792987C 
9  -0.3886791OA
10 0.03843589C 
11 -0.3053969NA
12 0.04216154C 
13 0.01910591C 
14 0.16684785C 
15 -0.3654923OA
16 -0.0104517C 
17 -0.3214460OA
18 0.16322846C 
19 -0.3674747OA
20 0.04430015C 
21 -0.0236791C 
22 0.11604326C 
23 -0.2339406OA
24 -0.2514660OA


$$$$
