
     RDKit          3D

 47 48  0  0  0  0  0  0  0  0999 V2000
   -0.7128    3.6619   -1.1822 C   0  0  0  0  0  0  0  0  0  0  0  0
   -0.9834    2.4868   -2.0610 C   0  0  2  0  0  0  0  0  0  0  0  0
   -1.7892    2.9021   -3.3004 C   0  0  0  0  0  0  0  0  0  0  0  0
   -1.7680    1.4156   -1.2965 C   0  0  0  0  0  0  0  0  0  0  0  0
   -3.1162    1.9893   -0.9741 C   0  0  0  0  0  0  0  0  0  0  0  0
   -4.2956    1.4032   -1.6540 C   0  0  0  0  0  0  0  0  0  0  0  0
   -4.0900    0.2994   -2.6008 C   0  0  1  0  0  0  0  0  0  0  0  0
   -2.7340   -0.3000   -2.5106 C   0  0  0  0  0  0  0  0  0  0  0  0
   -5.1850   -0.6799   -2.7692 C   0  0  0  0  0  3  0  0  0  0  0  0
   -4.8885   -1.8562   -3.6418 C   0  0  0  0  0  3  0  0  0  0  0  0
   -6.0966   -2.7468   -3.7946 C   0  0  0  0  0  0  0  0  0  0  0  0
   -6.4336   -3.3016   -2.3326 C   0  0  0  0  0  0  0  0  0  0  0  0
   -6.7745   -4.7462   -2.4656 C   0  0  0  0  0  0  0  0  0  0  0  0
   -7.7559   -2.5195   -2.0550 C   0  0  0  0  0  0  0  0  0  0  0  0
   -5.4362   -2.9067   -1.5299 C   0  0  0  0  0  0  0  0  0  0  0  0
   -4.5122   -2.5484   -0.7685 C   0  0  0  0  0  0  0  0  0  0  0  0
   -3.5266   -2.1423    0.0615 C   0  0  0  0  0  0  0  0  0  0  0  0
   -3.6402   -0.8074    0.7053 C   0  0  0  0  0  0  0  0  0  0  0  0
   -4.7995   -0.8483    1.7549 C   0  0  1  0  0  0  0  0  0  0  0  0
   -4.0690   -1.3175    2.9162 O   0  0  0  0  0  0  0  0  0  0  0  0
   -5.1539    0.5979    2.0927 C   0  0  0  0  0  0  0  0  0  0  0  0
   -3.8648    1.3985    2.3577 C   0  0  0  0  0  0  0  0  0  0  0  0
   -2.7549    0.4483    2.7613 C   0  0  1  0  0  0  0  0  0  0  0  0
   -1.5184    0.7838    1.9935 C   0  0  0  0  0  0  0  0  0  0  0  0
   -2.5152    0.5465    4.1037 O   0  0  0  0  0  0  0  0  0  0  0  0
   -2.1011    1.7513    4.5426 N   0  0  0  0  0  0  0  0  0  0  0  0
   -2.0130    2.7110    3.4723 C   0  0  0  0  0  0  0  0  0  0  0  0
   -1.2078    2.2464    2.3200 C   0  0  2  0  0  0  0  0  0  0  0  0
   -1.4630    3.0761    1.1243 C   0  0  0  0  0  0  0  0  0  0  0  0
   -0.3384    3.3713    0.2182 C   0  0  1  0  0  0  0  0  0  0  0  0
    0.9076    2.5147    0.4047 C   0  0  0  0  0  0  0  0  0  0  0  0
    1.2074    2.3016    2.1849 P   0  0  0  0  0  0  0  0  0  0  0  0
    2.8925    1.7894    2.5851 C   0  0  0  0  0  0  0  0  0  0  0  0
    3.6969    1.3609    1.4211 C   0  0  0  0  0  0  0  0  0  0  0  0
    3.0490    0.1727    0.7356 C   0  0  2  0  0  0  0  0  0  0  0  0
    2.8435   -1.2037    2.0140 P   0  0  0  0  0  0  0  0  0  0  0  0
    4.2904   -0.4705   -0.5367 P   0  0  0  0  0  0  0  0  0  0  0  0
    5.4683    0.8645   -0.9997 C   0  0  0  0  0  3  0  0  0  0  0  0
    6.8701    0.5162   -0.7503 C   0  0  0  0  0  0  0  0  0  0  0  0
    7.0435   -0.7937   -0.0600 C   0  0  2  0  0  0  0  0  0  0  0  0
    6.3042   -0.7004    1.2805 C   0  0  0  0  0  0  0  0  0  0  0  0
    8.5098   -1.1051    0.2727 C   0  0  0  0  0  0  0  0  0  0  0  0
    9.3138   -1.1645   -0.9837 C   0  0  0  0  0  0  0  0  0  0  0  0
   10.7710   -1.4864   -0.6790 C   0  0  1  0  0  0  0  0  0  0  0  0
   11.3121   -0.3850    0.2277 C   0  0  0  0  0  2  0  0  0  0  0  0
   10.8132   -2.7639    0.2064 C   0  0  0  0  0  0  0  0  0  0  0  0
   10.2445   -3.8154   -0.4268 F   0  0  0  0  0  0  0  0  0  0  0  0
  1  2  1  0
  2  3  1  6
  2  4  1  0
  4  5  1  0
  5  6  1  0
  6  7  1  0
  7  8  1  1
  7  9  1  0
  9 10  1  0
 10 11  1  0
 11 12  1  0
 12 13  1  0
 12 14  1  0
 12 15  1  0
 15 16  3  0
 16 17  1  0
 17 18  1  0
 18 19  1  0
 19 20  1  1
 19 21  1  0
 21 22  1  0
 23 22  1  6
 23 24  1  0
 23 25  1  0
 25 26  1  0
 26 27  1  0
 28 27  1  1
 28 29  1  0
 29 30  1  0
 30 31  1  6
 31 32  1  0
 32 33  1  0
 33 34  1  0
 34 35  1  0
 35 36  1  1
 35 37  1  0
 37 38  1  0
 38 39  1  0
 39 40  1  0
 40 41  1  1
 40 42  1  0
 42 43  1  0
 43 44  1  0
 44 45  1  1
 44 46  1  0
 46 47  1  0
 30  1  1  0
 28 24  1  0
M  RAD  4   9   2  10   2  38   2  45   3
M  END
>  <fragInfo>  (1) 
1 2 3 4 5 6 7 8 9 10 11 12 13 14 15 16 17 18 19 20 21 22 23 24 25 26 27 28 29 30
31
32
33
34
35 36
37
38
39
40 41
42
43
44 45
46 47


>  <torsionInfo>  (1) 
30 31 0 1
31 32 1 2
32 33 2 3
33 34 3 4
34 35 4 5
35 37 5 6
37 38 6 7
38 39 7 8
39 40 8 9
40 42 9 10
42 43 10 11
43 44 11 12
44 46 12 13


>  <atomInfo>  (1) 
1  -0.0475152C 
2  -0.0440038C 
3  -0.0624993C 
4  -0.0506906C 
5  -0.0527878C 
6  -0.0504158C 
7  -0.0408742C 
8  -0.0622236C 
9  -0.0323031C 
10 -0.0334404C 
11 -0.0336554C 
12 0.02608336C 
13 -0.0487895C 
14 -0.0487895C 
15 -0.0970807C 
16 -0.1026492C 
17 0.01134257C 
18 -0.0159906C 
19 0.05498976C 
20 -0.3930938OA
21 -0.0244307C 
22 -0.0222496C 
23 0.07939937C 
24 -0.0205569C 
25 -0.2984933OA
26 -0.2019726NA
27 0.02390454C 
28 -0.0237196C 
29 -0.0458548C 
30 -0.0371549C 
31 -0.0324748C 
32 -0.1217844P 
33 -0.0344235C 
34 -0.0395102C 
35 -0.0083744C 
36 -0.1300735P 
37 -0.1110912P 
38 -0.0162914C 
39 -0.0435098C 
40 -0.0436534C 
41 -0.0624864C 
42 -0.0503201C 
43 -0.0474105C 
44 -0.0093974C 
45 -0.0291185C 
46 0.09249716C 
47 -0.2507913F 


$$$$
