
     RDKit          3D

 50 57  0  0  0  0  0  0  0  0999 V2000
    4.5775    0.3392   -0.1444 C   0  0  0  0  0  0  0  0  0  0  0  0
    5.4043    1.5091    0.3304 C   0  0  1  0  0  0  0  0  0  0  0  0
    6.4475    1.8676   -0.7151 C   0  0  0  0  0  0  0  0  0  0  0  0
    4.4765    2.6876    0.4903 C   0  0  0  0  0  0  0  0  0  0  0  0
    3.1779    2.4790   -0.2821 C   0  0  0  0  0  0  0  0  0  0  0  0
    2.3401    3.7040   -0.0781 C   0  0  0  0  0  0  0  0  0  0  0  0
    0.8960    3.5224   -0.4166 C   0  0  1  0  0  0  0  0  0  0  0  0
    0.6661    3.5100   -1.8921 C   0  0  0  0  0  0  0  0  0  0  0  0
    0.2162    2.4250    0.3289 C   0  0  1  0  0  0  0  0  0  0  0  0
   -1.0590    2.7893    0.9823 C   0  0  0  0  0  0  0  0  0  0  0  0
   -2.3232    2.5069    0.2524 C   0  0  0  0  0  0  0  0  0  0  0  0
   -3.4879    2.9241    1.0937 C   0  0  1  0  0  0  0  0  0  0  0  0
   -4.2927    4.0429    0.5293 C   0  0  0  0  0  0  0  0  0  0  0  0
   -4.8997    3.7672   -0.8025 C   0  0  0  0  0  0  0  0  0  0  0  0
   -4.2383    1.8737    1.7558 C   0  0  0  0  0  0  0  0  0  0  0  0
   -4.2205    0.5677    1.5242 C   0  0  0  0  0  0  0  0  0  0  0  0
   -3.3666    0.0507    0.4931 C   0  0  0  0  0  0  0  0  0  0  0  0
   -3.0509   -1.3696    0.4575 C   0  0  2  0  0  0  0  0  0  0  0  0
   -4.1872   -1.9304   -0.3729 C   0  0  0  0  0  0  0  0  0  0  0  0
   -4.0844   -3.3939   -0.6395 C   0  0  0  0  0  0  0  0  0  0  0  0
   -5.5333   -1.5090    0.1597 C   0  0  0  0  0  0  0  0  0  0  0  0
   -3.9395   -1.2335   -1.7396 C   0  0  0  0  0  0  0  0  0  0  0  0
   -3.0711   -0.2182   -1.7286 O   0  0  0  0  0  0  0  0  0  0  0  0
   -2.0347    0.5112   -2.0946 S   0  0  1  0  0  0  0  0  0  0  0  0
   -0.8671    1.2923   -2.9333 C   0  0  0  0  0  0  0  0  0  0  0  0
   -0.9901    1.4114   -1.4687 C   0  0  2  0  0  0  0  0  0  0  0  0
    0.1270    1.1313   -0.4960 C   0  0  2  0  0  0  0  0  0  0  0  0
   -0.1923    0.0426    0.3665 C   0  0  2  0  0  0  0  0  0  0  0  0
   -0.8494    0.4907    1.6480 C   0  0  0  0  0  0  0  0  0  0  0  0
    0.5733    0.5581    2.2280 C   0  0  0  0  0  0  0  0  0  0  0  0
    0.6816   -0.6546    1.3173 C   0  0  2  0  0  0  0  0  0  0  0  0
    2.0646   -0.9285    0.9341 C   0  0  0  0  0  0  0  0  0  0  0  0
   -0.1027   -1.7756    1.9321 C   0  0  0  0  0  0  0  0  0  0  0  0
   -1.3896   -1.7727    2.2908 C   0  0  0  0  0  0  0  0  0  0  0  0
   -2.6524   -2.0462    1.6830 C   0  0  2  0  0  0  0  0  0  0  0  0
   -2.5812   -3.5082    1.1925 C   0  0  0  0  0  0  0  0  0  0  0  0
   -1.7468   -3.3026   -0.0545 C   0  0  0  0  0  3  0  0  0  0  0  0
   -1.9101   -1.8481   -0.3961 C   0  0  0  0  0  3  0  0  0  0  0  0
   -0.7278   -1.0620   -0.4184 C   0  0  0  0  0  0  0  0  0  0  0  0
   -0.0328   -1.5239   -1.3842 N   0  0  0  0  0  3  0  0  0  0  0  0
    1.2341   -1.1059   -1.8246 C   0  0  0  0  0  0  0  0  0  0  0  0
    1.9497   -2.2435   -2.5120 C   0  0  0  0  0  0  0  0  0  0  0  0
    3.3129   -2.4194   -1.8616 C   0  0  0  0  0  0  0  0  0  0  0  0
    4.3284   -1.4493   -2.4061 C   0  0  0  0  0  0  0  0  0  0  0  0
    5.5572   -1.4913   -1.5477 C   0  0  0  0  0  3  0  0  0  0  0  0
    5.3475   -0.9448   -0.1710 C   0  0  2  0  0  0  0  0  0  0  0  0
    4.8271   -1.9751    0.7898 C   0  0  0  0  0  0  0  0  0  0  0  0
    4.2112   -1.3494    2.0132 C   0  0  0  0  0  0  0  0  0  0  0  0
    2.7401   -1.7448    2.0185 C   0  0  2  0  0  0  0  0  0  0  0  0
    2.6745   -3.2033    1.5690 C   0  0  0  0  0  2  0  0  0  0  0  0
  1  2  1  0
  2  3  1  6
  2  4  1  0
  4  5  1  0
  5  6  1  0
  6  7  1  0
  7  8  1  6
  7  9  1  0
  9 10  1  6
 10 11  1  0
 11 12  1  0
 12 13  1  6
 13 14  1  0
 12 15  1  0
 15 16  2  3
 16 17  1  0
 18 17  1  1
 18 19  1  0
 19 20  1  0
 19 21  1  0
 19 22  1  0
 22 23  1  0
 23 24  1  0
 24 25  1  0
 26 25  1  6
 27 26  1  6
 27 28  1  0
 28 29  1  1
 29 30  1  0
 31 30  1  1
 31 32  1  0
 31 33  1  0
 33 34  2  3
 34 35  1  0
 35 36  1  6
 36 37  1  0
 37 38  1  0
 38 39  1  0
 39 40  2  3
 40 41  1  0
 41 42  1  0
 42 43  1  0
 43 44  1  0
 44 45  1  0
 46 45  1  6
 46 47  1  0
 47 48  1  0
 48 49  1  0
 49 50  1  6
 46  1  1  0
 27  9  1  0
 35 18  1  0
 38 18  1  0
 26 24  1  0
 31 28  1  0
 39 28  1  0
 49 32  1  0
M  CHG  1  40   1
M  RAD  5  37   2  38   2  40   2  45   2  50   3
M  END
>  <fragInfo>  (1) 
1 2 3 4 5 6 7 8 9 10 11 12 15 16 17 18 19 20 21 22 23 24 25 26 27 28 29 30 31 32 33 34 35 36 37 38 39 40 41 42 43 44 45 46 47 48 49 50
13 14


>  <torsionInfo>  (1) 
12 13 0 1


>  <atomInfo>  (1) 
1  -0.0475786C 
2  -0.0440060C 
3  -0.0624993C 
4  -0.0506907C 
5  -0.0527880C 
6  -0.0504253C 
7  -0.0410927C 
8  -0.0622331C 
9  -0.0337758C 
10 -0.0492905C 
11 -0.0466882C 
12 -0.0236030C 
13 -0.0498267C 
14 -0.0648211C 
15 -0.0854091C 
16 -0.0876262C 
17 -0.0270732C 
18 0.00421728C 
19 -0.0031258C 
20 -0.0570495C 
21 -0.0570495C 
22 0.06461770C 
23 -0.3384521OA
24 -0.1427039S 
25 0.00927723C 
26 0.02144429C 
27 -0.0089079C 
28 0.07097708C 
29 -0.0356940C 
30 -0.0418893C 
31 0.00426347C 
32 -0.0398720C 
33 -0.0808659C 
34 -0.0841879C 
35 -0.0153293C 
36 -0.0420655C 
37 -0.0195954C 
38 0.08410435C 
39 0.23844597C 
40 0.01612443N 
41 0.21023457C 
42 0.01302787C 
43 -0.0467395C 
44 -0.0496646C 
45 -0.0354628C 
46 -0.0380464C 
47 -0.0498877C 
48 -0.0498553C 
49 -0.0371414C 
50 -0.0317672C 


$$$$
