
     RDKit          3D

 27 31  0  0  0  0  0  0  0  0999 V2000
    0.9020   -0.6327    2.1375 O   0  0  0  0  0  0  0  0  0  0  0  0
    1.5249   -0.5738    1.0478 C   0  0  0  0  0  0  0  0  0  0  0  0
    2.9127   -0.1914    0.8949 C   0  0  0  0  0  0  0  0  0  0  0  0
    3.8280    0.2337    1.8645 C   0  0  0  0  0  0  0  0  0  0  0  0
    5.1209    0.5574    1.5197 C   0  0  0  0  0  0  0  0  0  0  0  0
    5.4774    0.4461    0.1826 C   0  0  0  0  0  0  0  0  0  0  0  0
    4.5722    0.0271   -0.7675 C   0  0  0  0  0  0  0  0  0  0  0  0
    3.2758   -0.2953   -0.4082 C   0  0  0  0  0  0  0  0  0  0  0  0
    2.1036   -0.7612   -1.1643 C   0  0  0  0  0  0  0  0  0  0  0  0
    2.1831   -0.9935   -2.4068 O   0  0  0  0  0  0  0  0  0  0  0  0
    0.9506   -0.8837   -0.2611 C   0  0  0  0  0  0  0  0  0  0  0  0
   -0.1826    0.0303   -0.6618 C   0  0  0  0  0  0  0  0  0  0  0  0
    0.2776    1.4026   -0.7612 N   0  0  0  0  0  0  0  0  0  0  0  0
   -1.4487   -0.1965   -0.9661 C   0  0  0  0  0  0  0  0  0  0  0  0
   -2.0695    0.4912   -2.0851 C   0  0  0  0  0  0  0  0  0  0  0  0
   -3.1673    0.5184   -2.6854 O   0  0  0  0  0  0  0  0  0  0  0  0
   -1.0846    1.4326   -2.6954 N   0  0  0  0  0  0  0  0  0  0  0  0
   -0.4926    2.3324   -1.6206 C   0  0  1  0  0  0  0  0  0  0  0  0
   -1.5940    2.8249   -0.7111 C   0  0  0  0  0  0  0  0  0  0  0  0
   -2.2285    2.1567    0.1130 C   0  0  0  0  0  0  0  0  0  0  0  0
   -2.7561    1.2263    0.9164 C   0  0  0  0  0  0  0  0  0  0  0  0
   -2.8797   -0.0716    1.0186 C   0  0  0  0  0  0  0  0  0  0  0  0
   -3.5780   -0.7586    2.1243 C   0  0  0  0  0  0  0  0  0  0  0  0
   -3.3366   -2.2248    2.1629 C   0  0  0  0  0  0  0  0  0  0  0  0
   -3.2692   -2.9066    0.8653 C   0  0  0  0  0  0  0  0  0  0  0  0
   -2.7483   -2.2510   -0.2052 C   0  0  0  0  0  0  0  0  0  0  0  0
   -2.2932   -0.9390   -0.0247 C   0  0  1  0  0  0  0  0  0  0  0  0
  1  2  2  0
  2  3  1  0
  3  4  2  0
  4  5  1  0
  5  6  2  0
  6  7  1  0
  7  8  2  0
  8  9  1  0
  9 10  2  0
  9 11  1  0
 11 12  1  0
 12 13  1  0
 12 14  2  0
 14 15  1  0
 15 16  2  0
 15 17  1  0
 18 17  1  6
 18 19  1  0
 19 20  2  3
 20 21  1  0
 21 22  2  3
 22 23  1  0
 23 24  1  0
 24 25  1  0
 25 26  2  0
 27 26  1  6
 11  2  1  0
  8  3  1  0
 18 13  1  0
 27 14  1  0
 27 22  1  0
M  END
>  <fragInfo>  (1) 
12 13 14 15 16 17 18 19 20 21 22 23 24 25 26 27
1 2 3 4 5 6 7 8 9 10 11


>  <torsionInfo>  (1) 
11 12 1 0


>  <atomInfo>  (1) 
1  -0.2928861OA
2  0.17987171C 
3  0.02955711A 
4  -0.0506385A 
5  -0.0614974A 
6  -0.0614974A 
7  -0.0506385A 
8  0.02955711A 
9  0.17987171C 
10 -0.2928861OA
11 0.12575370C 
12 0.04120057C 
13 -0.3639966N 
14 0.04808660C 
15 0.25126688C 
16 -0.2695063OA
17 -0.3287548N 
18 0.11846725C 
19 -0.0421993C 
20 -0.0623979C 
21 -0.0622850C 
22 -0.0583346C 
23 -0.0273094C 
24 -0.0312530C 
25 -0.0872815C 
26 -0.0766965C 
27 0.03032901C 


$$$$
