
     RDKit          3D

 37 41  0  0  0  0  0  0  0  0999 V2000
   -1.1261   -1.4896   -3.7509 C   0  0  0  0  0  0  0  0  0  0  0  0
   -1.7272   -1.0200   -2.5720 O   0  0  0  0  0  0  0  0  0  0  0  0
   -1.0431   -0.9737   -1.3846 C   0  0  0  0  0  0  0  0  0  0  0  0
    0.2724   -1.4471   -1.2671 C   0  0  0  0  0  0  0  0  0  0  0  0
    0.8629   -1.3756   -0.0112 C   0  0  0  0  0  0  0  0  0  0  0  0
    2.1815   -1.8530    0.1907 C   0  0  0  0  0  0  0  0  0  0  0  0
    2.8443   -2.3505   -0.9152 N   0  0  0  0  0  0  0  0  0  0  0  0
    4.1396   -2.8640   -1.0496 C   0  0  0  0  0  0  0  0  0  0  0  0
    4.9678   -2.8607    0.0674 C   0  0  0  0  0  0  0  0  0  0  0  0
    6.2651   -3.3664   -0.1042 C   0  0  0  0  0  0  0  0  0  0  0  0
    6.7212   -3.8479   -1.3048 C   0  0  0  0  0  0  0  0  0  0  0  0
    8.5162   -4.5187   -1.4222 Br  0  0  0  0  0  0  0  0  0  0  0  0
    5.8778   -3.8422   -2.4092 C   0  0  0  0  0  0  0  0  0  0  0  0
    4.5873   -3.3360   -2.2279 C   0  0  0  0  0  0  0  0  0  0  0  0
    3.8107   -3.3402   -3.3491 F   0  0  0  0  0  0  0  0  0  0  0  0
    2.7090   -1.7921    1.4075 N   0  0  0  0  0  0  0  0  0  0  0  0
    2.0176   -1.2838    2.4697 C   0  0  0  0  0  0  0  0  0  0  0  0
    0.7906   -0.8378    2.2800 N   0  0  0  0  0  0  0  0  0  0  0  0
    0.1817   -0.8647    1.0453 C   0  0  0  0  0  0  0  0  0  0  0  0
   -1.1098   -0.3811    0.9684 C   0  0  0  0  0  0  0  0  0  0  0  0
   -1.7015   -0.4534   -0.2888 C   0  0  0  0  0  0  0  0  0  0  0  0
   -3.0888    0.0848   -0.5556 C   0  0  0  0  0  0  0  0  0  0  0  0
   -3.2164    0.6870   -1.9217 C   0  0  0  0  0  0  0  0  0  0  0  0
   -3.1649    2.1723   -1.8433 C   0  0  1  0  0  0  0  0  0  0  0  0
   -4.2853    2.8362   -1.1918 C   0  0  0  0  0  0  0  0  0  0  0  0
   -4.0735    3.6337    0.0123 C   0  0  0  0  0  0  0  0  0  0  0  0
   -3.2315    3.3810    1.0754 C   0  0  0  0  0  0  0  0  0  0  0  0
   -3.1492    4.3857    2.1516 C   0  0  0  0  0  0  0  0  0  0  0  0
   -3.8734    5.6500    1.7553 C   0  0  0  0  0  0  0  0  0  0  0  0
   -4.8562    6.1083    2.5000 C   0  0  0  0  0  0  0  0  0  0  0  0
   -5.4968    7.2637    2.1166 F   0  0  0  0  0  0  0  0  0  0  0  0
   -2.3565    2.2618    1.1332 C   0  0  0  0  0  0  0  0  0  0  0  0
   -2.3251    1.3173    2.0815 N   0  0  0  0  0  0  0  0  0  0  0  0
   -1.8294    0.1655    2.1499 C   0  0  0  0  0  0  0  0  0  0  0  0
   -1.7856   -0.6633    3.2235 F   0  0  0  0  0  0  0  0  0  0  0  0
   -1.4397    2.2025   -0.0612 C   0  0  0  0  0  0  0  0  0  0  0  0
   -1.8658    2.6121   -1.3103 C   0  0  0  0  0  0  0  0  0  0  0  0
  1  2  1  0
  2  3  1  0
  3  4  2  0
  4  5  1  0
  5  6  2  0
  6  7  1  0
  7  8  1  0
  8  9  2  0
  9 10  1  0
 10 11  2  0
 11 12  1  0
 11 13  1  0
 13 14  2  0
 14 15  1  0
  6 16  1  0
 16 17  2  0
 17 18  1  0
 18 19  2  0
 19 20  1  0
 20 21  2  0
 21 22  1  0
 22 23  1  0
 24 23  1  1
 24 25  1  0
 25 26  1  0
 26 27  2  0
 27 28  1  0
 28 29  1  0
 29 30  2  3
 30 31  1  0
 27 32  1  0
 32 33  1  0
 33 34  2  3
 34 35  1  0
 32 36  1  0
 36 37  2  0
 21  3  1  0
 19  5  1  0
 14  8  1  0
 34 20  1  0
 37 24  1  0
M  END
>  <fragInfo>  (1) 
3 4 5 6 16 17 18 19 20 21 22 23 24 25 26 27 32 33 34 35 36 37
1 2
7
8 9 10 11 12 13 14 15
28
29 30 31


>  <torsionInfo>  (1) 
2 3 1 0
6 7 0 2
27 28 0 4
7 8 2 3
28 29 4 5


>  <atomInfo>  (1) 
1  0.07752328C 
2  -0.4964245OA
3  0.12320574A 
4  -0.0064720A 
5  0.04749299A 
6  0.14142509A 
7  -0.3372225N 
8  0.07596371A 
9  -0.0344281A 
10 -0.0456991A 
11 0.02054128A 
12 -0.0507274Br
13 -0.0098810A 
14 0.14729493A 
15 -0.2046615F 
16 -0.2185941NA
17 0.11806527A 
18 -0.2353582NA
19 0.08811534A 
20 0.06262458A 
21 0.00815844A 
22 -0.0227969C 
23 -0.0424301C 
24 -0.0194721C 
25 -0.0283608C 
26 -0.0819778C 
27 -0.0420217C 
28 -0.0088815C 
29 -0.0520010C 
30 0.08298208C 
31 -0.2158807F 
32 0.09250746C 
33 -0.2452120NA
34 0.21865264C 
35 -0.1845305F 
36 -0.0596398C 
37 -0.0826540C 


$$$$
