
     RDKit          3D

  9  8  0  0  0  0  0  0  0  0999 V2000
   -3.4116   -0.8025   -0.3974 C   0  0  0  0  0  0  0  0  0  0  0  0
   -2.4289    0.1200   -0.3863 O   0  0  0  0  0  0  0  0  0  0  0  0
   -1.3347    0.0268   -1.3231 C   0  0  0  0  0  3  0  0  0  0  0  0
   -0.3501    0.3947   -0.3301 O   0  0  0  0  0  0  0  0  0  0  0  0
    0.6195   -0.7687   -0.2323 C   0  0  2  0  0  0  0  0  0  0  0  0
   -0.3112   -1.8053    0.6756 C   0  0  0  0  0  0  0  0  0  0  0  0
    1.2383   -0.1874    1.0240 O   0  0  0  0  0  0  0  0  0  0  0  0
    2.4980    0.2357    0.8546 C   0  0  0  0  0  3  0  0  0  0  0  0
    3.4807   -0.2623    0.1149 O   0  0  0  0  0  0  0  0  0  0  0  0
  1  2  1  0
  2  3  1  0
  3  4  1  0
  4  5  1  0
  5  6  1  1
  5  7  1  0
  7  8  1  0
  8  9  1  0
M  RAD  2   3   2   8   2
M  END
>  <fragInfo>  (1) 
1 2
3
4
5 6
7
8 9


>  <torsionInfo>  (1) 
2 3 0 1
3 4 1 2
4 5 2 3
5 7 3 4
7 8 4 5


>  <atomInfo>  (1) 
1  0.03885774C 
2  -0.3512729OA
3  0.21124888C 
4  -0.3186430OA
5  0.16114965C 
6  -0.0131942C 
7  -0.3188245OA
8  0.20886349C 
9  -0.3638764OA


$$$$
