
     RDKit          3D

 20 20  0  0  0  0  0  0  0  0999 V2000
   -4.4369   -1.3376    0.7452 C   0  0  0  0  0  0  0  0  0  0  0  0
   -5.0427   -1.2800   -0.5185 O   0  0  0  0  0  0  0  0  0  0  0  0
   -5.6072    0.0044   -0.6677 C   0  0  0  0  0  3  0  0  0  0  0  0
   -5.2953    0.7938    0.4425 O   0  0  0  0  0  0  0  0  0  0  0  0
   -4.0889    1.4493    0.2696 C   0  0  2  0  0  0  0  0  0  0  0  0
   -4.2961    2.4393   -0.8786 C   0  0  0  0  0  0  0  0  0  0  0  0
   -2.9916    0.5178   -0.1250 C   0  0  0  0  0  3  0  0  0  0  0  0
   -3.0221   -0.8133    0.5926 C   0  0  2  0  0  0  0  0  0  0  0  0
   -2.2672   -1.7547   -0.2111 N   0  0  0  0  0  0  0  0  0  0  0  0
   -0.8705   -1.4470   -0.1823 C   0  0  0  0  0  3  0  0  0  0  0  0
   -0.6550    0.0293   -0.3919 C   0  0  0  0  0  0  0  0  0  0  0  0
    0.8238    0.3684   -0.3624 C   0  0  0  0  0  3  0  0  0  0  0  0
    1.3302   -0.0593    1.0055 C   0  0  0  0  0  3  0  0  0  0  0  0
    2.0442   -1.3809    0.8234 C   0  0  0  0  0  0  0  0  0  0  0  0
    3.2044   -1.1292   -0.1480 C   0  0  0  0  0  0  0  0  0  0  0  0
    4.0772   -0.0815    0.5303 C   0  0  0  0  0  3  0  0  0  0  0  0
    5.2450    0.2046   -0.3651 C   0  0  0  0  0  0  0  0  0  0  0  0
    6.1465    1.2397    0.2721 C   0  0  0  0  0  0  0  0  0  0  0  0
    7.3329    1.5506   -0.6016 C   0  0  0  0  0  3  0  0  0  0  0  0
    8.3694    0.6862   -0.2751 O   0  0  0  0  0  1  0  0  0  0  0  0
  1  2  1  0
  2  3  1  0
  3  4  1  0
  4  5  1  0
  5  6  1  6
  5  7  1  0
  7  8  1  0
  8  9  1  6
  9 10  1  0
 10 11  1  0
 11 12  1  0
 12 13  1  0
 13 14  1  0
 14 15  1  0
 15 16  1  0
 16 17  1  0
 17 18  1  0
 18 19  1  0
 19 20  1  0
  8  1  1  0
M  CHG  1  20  -1
M  RAD  7   3   2   7   2  10   2  12   2  13   2  16   2  19   2
M  END
>  <fragInfo>  (1) 
1 2 3 4 5 6 7 8
9
10
11
12
13
14
15
16
17
18
19 20


>  <torsionInfo>  (1) 
8 9 0 1
9 10 1 2
10 11 2 3
11 12 3 4
12 13 4 5
13 14 5 6
14 15 6 7
15 16 7 8
16 17 8 9
17 18 9 10
18 19 10 11


>  <atomInfo>  (1) 
1  0.06570128C 
2  -0.3463129OA
3  0.20927063C 
4  -0.3445459OA
5  0.06286428C 
6  -0.0382008C 
7  0.00939552C 
8  0.03632466C 
9  -0.3069873NA
10 0.02274560C 
11 -0.0328352C 
12 -0.0335948C 
13 -0.0351208C 
14 -0.0496223C 
15 -0.0498991C 
16 -0.0386125C 
17 -0.0512419C 
18 -0.0666244C 
19 -0.1399360C 
20 -0.8526838OA


$$$$
