
     RDKit          2D

 55 54  0  0  0  0  0  0  0  0999 V2000
   -5.1962    7.5000    0.0000 O   0  0  0  0  0  0  0  0  0  0  0  0
   -3.8971    6.7500    0.0000 C   0  0  0  0  0  0  0  0  0  0  0  0
   -2.5981    7.5000    0.0000 C   0  0  0  0  0  3  0  0  0  0  0  0
   -1.2990    6.7500    0.0000 N   0  0  0  0  0  0  0  0  0  0  0  0
   -0.0000    7.5000    0.0000 C   0  0  0  0  0  0  0  0  0  0  0  0
   -0.0000    9.0000    0.0000 C   0  0  0  0  0  0  0  0  0  0  0  0
   -1.2990    9.7500    0.0000 O   0  0  0  0  0  0  0  0  0  0  0  0
    1.2990    6.7500    0.0000 C   0  0  0  0  0  0  0  0  0  0  0  0
    2.5981    7.5000    0.0000 O   0  0  0  0  0  0  0  0  0  0  0  0
    1.2990    5.2500    0.0000 C   0  0  0  0  0  0  0  0  0  0  0  0
   -0.0000    4.5000    0.0000 O   0  0  0  0  0  0  0  0  0  0  0  0
    2.5981    4.5000    0.0000 O   0  0  0  0  0  0  0  0  0  0  0  0
    2.5981    3.0000    0.0000 C   0  0  0  0  0  3  0  0  0  0  0  0
    3.8971    2.2500    0.0000 S   0  0  0  0  0  0  0  0  0  0  0  0
    3.8971    0.7500    0.0000 C   0  0  0  0  0  0  0  0  0  0  0  0
    2.5981   -0.0000    0.0000 O   0  0  0  0  0  0  0  0  0  0  0  0
    5.1962    0.0000    0.0000 O   0  0  0  0  0  0  0  0  0  0  0  0
    6.4952    0.7500    0.0000 C   0  0  0  0  0  0  0  0  0  0  0  0
    7.7942    0.0000    0.0000 C   0  0  0  0  0  0  0  0  0  0  0  0
    6.4952    2.2500    0.0000 O   0  0  0  0  0  0  0  0  0  0  0  0
    5.1962    3.0000    0.0000 O   0  0  0  0  0  0  0  0  0  0  0  0
    5.1962    4.5000    0.0000 C   0  0  0  0  0  0  0  0  0  0  0  0
    3.8971    5.2500    0.0000 S   0  0  0  0  0  0  0  0  0  0  0  0
    3.8971    6.7500    0.0000 O   0  0  0  0  0  0  0  0  0  0  0  0
    5.1962    7.5000    0.0000 C   0  0  0  0  0  0  0  0  0  0  0  0
    6.4952    6.7500    0.0000 O   0  0  0  0  0  0  0  0  0  0  0  0
    5.1962    9.0000    0.0000 C   0  0  0  0  0  0  0  0  0  0  0  0
    6.4952    9.7500    0.0000 O   0  0  0  0  0  0  0  0  0  0  0  0
    6.4952   11.2500    0.0000 S   0  0  0  0  0  0  0  0  0  0  0  0
    4.9952   11.2500    0.0000 O   0  0  0  0  0  0  0  0  0  0  0  0
    7.9952   11.2500    0.0000 O   0  0  0  0  0  0  0  0  0  0  0  0
    6.4952   12.7500    0.0000 O   0  0  0  0  0  0  0  0  0  0  0  0
    5.1962   13.5000    0.0000 C   0  0  0  0  0  3  0  0  0  0  0  0
    5.1962   15.0000    0.0000 O   0  0  0  0  0  0  0  0  0  0  0  0
    3.8971   15.7500    0.0000 S   0  0  0  0  0  0  0  0  0  0  0  0
    3.8971   17.2500    0.0000 O   0  0  0  0  0  0  0  0  0  0  0  0
    2.5981   18.0000    0.0000 O   0  0  0  0  0  0  0  0  0  0  0  0
    2.5981   19.5000    0.0000 O   0  0  0  0  0  0  0  0  0  0  0  0
    1.2990   20.2500    0.0000 C   0  0  0  0  0  0  0  0  0  0  0  0
    0.0000   19.5000    0.0000 O   0  0  0  0  0  0  0  0  0  0  0  0
    1.2990   21.7500    0.0000 C   0  0  0  0  0  3  0  0  0  0  0  0
    0.0000   22.5000    0.0000 O   0  0  0  0  0  0  0  0  0  0  0  0
    0.0000   24.0000    0.0000 C   0  0  0  0  0  3  0  0  0  0  0  0
   -1.2990   24.7500    0.0000 C   0  0  0  0  0  0  0  0  0  0  0  0
   -1.2990   26.2500    0.0000 O   0  0  0  0  0  0  0  0  0  0  0  0
   -2.5981   27.0000    0.0000 C   0  0  0  0  0  0  0  0  0  0  0  0
   -3.8971   26.2500    0.0000 S   0  0  0  0  0  0  0  0  0  0  0  0
   -2.5981   28.5000    0.0000 C   0  0  0  0  0  0  0  0  0  0  0  0
   -3.8971   29.2500    0.0000 O   0  0  0  0  0  0  0  0  0  0  0  0
   -3.8971   30.7500    0.0000 C   0  0  0  0  0  0  0  0  0  0  0  0
   -2.5981   31.5000    0.0000 S   0  0  0  0  0  0  0  0  0  0  0  0
   -2.5981   33.0000    0.0000 C   0  0  0  0  0  3  0  0  0  0  0  0
   -1.2990   33.7500    0.0000 O   0  0  0  0  0  0  0  0  0  0  0  0
   -5.1962   31.5000    0.0000 C   0  0  0  0  0  3  0  0  0  0  0  0
   -5.1962   33.0000    0.0000 O   0  0  0  0  0  0  0  0  0  0  0  0
  1  2  1  0
  2  3  1  0
  3  4  1  0
  4  5  1  0
  5  6  1  6
  6  7  1  0
  5  8  1  0
  8  9  1  1
  8 10  1  0
 10 11  1  1
 10 12  1  0
 12 13  1  0
 13 14  1  0
 14 15  1  0
 15 16  1  0
 15 17  1  0
 17 18  1  0
 18 19  1  6
 18 20  1  0
 20 21  1  0
 21 22  1  0
 22 23  1  0
 23 24  1  0
 24 25  1  0
 25 26  1  1
 25 27  1  0
 27 28  1  0
 28 29  1  0
 29 30  1  0
 29 31  1  0
 29 32  1  0
 32 33  1  0
 33 34  1  0
 34 35  1  0
 35 36  1  0
 36 37  1  0
 37 38  1  0
 38 39  1  0
 39 40  1  1
 39 41  1  0
 41 42  1  0
 42 43  1  0
 43 44  1  0
 44 45  1  0
 45 46  1  0
 46 47  1  6
 46 48  1  0
 48 49  1  0
 49 50  1  0
 50 51  1  0
 51 52  1  0
 52 53  1  0
 50 54  1  1
 54 55  1  0
M  RAD  7   3   2  13   2  33   2  41   2  43   2  52   2  54   2
M  END
>  <fragInfo>  (1) 
29 30 31
1 2
3
4
5
6 7
8 9
10 11
12
13
14
15 16
17
18 19
20
21
22
23
24
25 26
27
28
32
33
34
35
36
37
38
39 40
41
42
43
44
45
46 47
48
49
50
51
52 53
54 55


>  <torsionInfo>  (1) 
28 29 21 0
29 32 0 22
2 3 1 2
3 4 2 3
4 5 3 4
5 6 4 5
5 8 4 6
8 10 6 7
10 12 7 8
12 13 8 9
13 14 9 10
14 15 10 11
15 17 11 12
17 18 12 13
18 20 13 14
20 21 14 15
21 22 15 16
22 23 16 17
23 24 17 18
24 25 18 19
25 27 19 20
27 28 20 21
32 33 22 23
33 34 23 24
34 35 24 25
35 36 25 26
36 37 26 27
37 38 27 28
38 39 28 29
39 41 29 30
41 42 30 31
42 43 31 32
43 44 32 33
44 45 33 34
45 46 34 35
46 48 35 36
48 49 36 37
49 50 37 38
50 51 38 39
50 54 38 41
51 52 39 40


>  <atomInfo>  (1) 
1  -0.3946905OA
2  0.06004188C 
3  0.04808625C 
4  -0.3027953NA
5  0.06164228C 
6  0.06116347C 
7  -0.3946470OA
8  0.12215784C 
9  -0.3860956OA
10 0.18356601C 
11 -0.3657324OA
12 -0.3322957OA
13 0.14650435C 
14 -0.0661116SA
15 0.20923112C 
16 -0.3594159OA
17 -0.3114793OA
18 0.19188505C 
19 -0.0103008C 
20 -0.2037264OA
21 -0.2206564OA
22 0.15365741C 
23 0.02682121SA
24 -0.2792915OA
25 0.19246944C 
26 -0.3652493OA
27 0.11809679C 
28 -0.2659693OA
29 0.22167591S 
30 -0.2866647OA
31 -0.2866647OA
32 -0.2325167OA
33 0.24302548C 
34 -0.2502148OA
35 0.20007135SA
36 -0.1021848OA
37 -0.0502106OA
38 -0.1701600OA
39 0.22081644C 
40 -0.3634738OA
41 0.14303328C 
42 -0.3614118OA
43 0.11002147C 
44 0.07715042C 
45 -0.3626095OA
46 0.12347927C 
47 -0.1456749SA
48 0.08368682C 
49 -0.3610495OA
50 0.13398116C 
51 -0.0927435SA
52 0.13709678C 
53 -0.3786814OA
54 0.11884414C 
55 -0.3866339OA


$$$$
