
     RDKit          3D

 33 33  0  0  0  0  0  0  0  0999 V2000
   -4.0244   -4.6379    0.1420 C   0  0  0  0  0  0  0  0  0  0  0  0
   -4.2790   -3.4431    0.8123 O   0  0  0  0  0  0  0  0  0  0  0  0
   -5.2501   -2.7371    0.0804 C   0  0  0  0  0  3  0  0  0  0  0  0
   -5.3627   -1.4756    0.7070 O   0  0  0  0  0  0  0  0  0  0  0  0
   -4.1252   -0.8231    0.6309 C   0  0  2  0  0  0  0  0  0  0  0  0
   -4.3065    0.5261    1.3199 C   0  0  0  0  0  0  0  0  0  0  0  0
   -3.8339   -0.6737   -0.7159 O   0  0  0  0  0  0  0  0  0  0  0  0
   -2.6325   -0.0406   -0.9182 C   0  0  1  0  0  0  0  0  0  0  0  0
   -2.6561    1.3114   -0.3090 C   0  0  0  0  0  3  0  0  0  0  0  0
   -1.6406    1.5064    0.7870 C   0  0  0  0  0  3  0  0  0  0  0  0
   -1.1463    2.9229    0.8789 C   0  0  2  0  0  0  0  0  0  0  0  0
   -1.7486    3.8191   -0.1884 C   0  0  0  0  0  0  0  0  0  0  0  0
   -1.1658    5.2009    0.0249 C   0  0  0  0  0  0  0  0  0  0  0  0
    0.3439    5.1837   -0.1020 C   0  0  0  0  0  0  0  0  0  0  0  0
    0.8264    6.4599    0.0996 O   0  0  0  0  0  0  0  0  0  0  0  0
    0.3528    2.9175    0.6428 C   0  0  0  0  0  0  0  0  0  0  0  0
    0.6883    1.7538   -0.0570 O   0  0  0  0  0  0  0  0  0  0  0  0
    1.5667    1.0418    0.7658 C   0  0  0  0  0  3  0  0  0  0  0  0
    2.8826    1.8055    0.7610 C   0  0  2  0  0  0  0  0  0  0  0  0
    2.8145    2.9613   -0.0025 O   0  0  0  0  0  1  0  0  0  0  0  0
    3.8383    0.9023    0.2405 O   0  0  0  0  0  0  0  0  0  0  0  0
    3.6091   -0.2396    0.8899 O   0  0  0  0  0  0  0  0  0  0  0  0
    3.7907   -1.3398    0.0251 C   0  0  1  0  0  0  0  0  0  0  0  0
    5.1672   -1.6439    0.1139 O   0  0  0  0  0  0  0  0  0  0  0  0
    5.4966   -2.7241   -0.6977 C   0  0  0  0  0  3  0  0  0  0  0  0
    6.1754   -2.2589   -1.8375 O   0  0  0  0  0  0  0  0  0  0  0  0
   -1.4267   -0.8553   -0.6348 C   0  0  0  0  0  3  0  0  0  0  0  0
   -1.3543   -1.4068    0.7538 C   0  0  0  0  0  3  0  0  0  0  0  0
   -0.0569   -2.2031    0.8753 C   0  0  0  0  0  3  0  0  0  0  0  0
    0.4687   -2.4721   -0.3860 O   0  0  0  0  0  0  0  0  0  0  0  0
    1.2325   -3.6155   -0.3555 C   0  0  0  0  0  3  0  0  0  0  0  0
    2.7242   -3.3362   -0.3658 C   0  0  0  0  0  3  0  0  0  0  0  0
    3.0316   -2.3864    0.5968 O   0  0  0  0  0  0  0  0  0  0  0  0
  1  2  1  0
  2  3  1  0
  3  4  1  0
  4  5  1  0
  5  6  1  6
  5  7  1  0
  8  7  1  1
  8  9  1  0
  9 10  1  0
 10 11  1  0
 11 12  1  6
 12 13  1  0
 13 14  1  0
 14 15  1  0
 11 16  1  0
 16 17  1  0
 17 18  1  0
 18 19  1  0
 19 20  1  6
 19 21  1  0
 21 22  1  0
 22 23  1  0
 23 24  1  1
 24 25  1  0
 25 26  1  0
  8 27  1  0
 27 28  1  0
 28 29  1  0
 29 30  1  0
 30 31  1  0
 31 32  1  0
 32 33  1  0
 33 23  1  0
M  RAD  8   3   2   9   2  10   2  18   2  25   2  27   2  28   2  29   2
M  CHG  1  20  -1
M  RAD  2  31   2  32   2
M  END
>  <fragInfo>  (1) 
8 9 10 11 16 17 18 19 20 21 22 23 27 28 29 30 31 32 33
1 2
3
4
5 6
7
12
13
14 15
24
25 26


>  <torsionInfo>  (1) 
7 8 5 0
11 12 0 6
23 24 0 9
2 3 1 2
3 4 2 3
4 5 3 4
5 7 4 5
12 13 6 7
13 14 7 8
24 25 9 10


>  <atomInfo>  (1) 
1  0.03885774C 
2  -0.3512729OA
3  0.21124624C 
4  -0.3187624OA
5  0.15812739C 
6  -0.0133112C 
7  -0.3489848OA
8  0.06765507C 
9  -0.0054878C 
10 -0.0271220C 
11 -0.0142419C 
12 -0.0457774C 
13 -0.0295184C 
14 0.04306425C 
15 -0.3963763OA
16 0.05024614C 
17 -0.3737966OA
18 0.09912355C 
19 0.04784406C 
20 -0.8267317OA
21 -0.2430904OA
22 -0.1753810OA
23 0.30352265C 
24 -0.2929068OA
25 0.21151574C 
26 -0.3638074OA
27 -0.0030905C 
28 -0.0009175C 
29 0.08813936C 
30 -0.3663140OA
31 0.11580218C 
32 0.12094504C 
33 -0.3189612OA


$$$$
