
     RDKit          3D

 26 26  0  0  0  0  0  0  0  0999 V2000
   -2.7783   -3.3449    0.0752 C   0  0  0  0  0  0  0  0  0  0  0  0
   -3.6081   -2.2101    0.6292 C   0  0  0  0  0  3  0  0  0  0  0  0
   -3.1649   -0.8718    0.2431 C   0  0  2  0  0  0  0  0  0  0  0  0
   -3.9949    0.2364    0.7893 C   0  0  2  0  0  0  0  0  0  0  0  0
   -5.0530   -0.2013    1.6073 O   0  0  0  0  0  0  0  0  0  0  0  0
   -4.6110    0.9683   -0.4053 C   0  0  2  0  0  0  0  0  0  0  0  0
   -5.7935    1.6337    0.0045 O   0  0  0  0  0  0  0  0  0  0  0  0
   -4.9498   -0.1642   -1.3814 C   0  0  1  0  0  0  0  0  0  0  0  0
   -5.9806    0.3178   -2.1734 O   0  0  0  0  0  0  0  0  0  0  0  0
   -3.8375   -0.6021   -2.0232 O   0  0  0  0  0  0  0  0  0  0  0  0
   -2.7212   -0.6489   -1.1727 C   0  0  1  0  0  0  0  0  0  0  0  0
   -2.0655    0.7421   -1.2089 C   0  0  0  0  0  3  0  0  0  0  0  0
   -1.2073    0.8050   -0.0006 C   0  0  0  0  0  0  0  0  0  0  0  0
   -0.4145    1.9920    0.1028 O   0  0  0  0  0  0  0  0  0  0  0  0
    0.0524    1.7985    1.4399 C   0  0  0  0  0  0  0  0  0  0  0  0
    0.7620    0.6339    1.4704 O   0  0  0  0  0  0  0  0  0  0  0  0
    1.9009    0.6641    0.7091 C   0  0  0  0  0  0  0  0  0  0  0  0
    2.5309   -0.5620    0.8237 O   0  0  0  0  0  0  0  0  0  0  0  0
    3.7026   -0.6492    0.3227 O   0  0  0  0  0  0  0  0  0  0  0  0
    4.2333    0.6985    0.1527 C   0  0  1  0  0  0  0  0  0  0  0  0
    4.3683    1.1600    1.5474 O   0  0  0  0  0  0  0  0  0  0  0  0
    5.7866    0.3389   -0.1170 C   0  0  1  0  0  0  0  0  0  0  0  0
    6.0428   -0.4531    1.0691 O   0  0  0  0  0  0  0  0  0  0  0  0
    5.7903   -0.6025   -1.2887 C   0  0  0  0  0  3  0  0  0  0  0  0
    7.1272   -0.9379   -1.5858 O   0  0  0  0  0  0  0  0  0  0  0  0
    7.8828   -0.7413   -0.5410 O   0  0  0  0  0  0  0  0  0  0  0  0
  1  2  1  0
  3  2  1  6
  3  4  1  0
  4  5  1  1
  4  6  1  0
  6  7  1  1
  6  8  1  0
  8  9  1  6
  8 10  1  0
 10 11  1  0
 11 12  1  1
 12 13  1  0
 13 14  1  0
 14 15  1  0
 15 16  1  0
 16 17  1  0
 17 18  1  0
 18 19  1  0
 19 20  1  0
 20 21  1  1
 20 22  1  0
 22 23  1  1
 22 24  1  0
 24 25  1  0
 25 26  1  0
 11  3  1  0
M  RAD  3   2   2  12   2  24   2
M  END
>  <fragInfo>  (1) 
3 4 5 6 7 8 9 10 11
1 2
12
13
14
15
16
17
18
19
20 21
22 23
24
25 26


>  <torsionInfo>  (1) 
2 3 1 0
11 12 0 2
12 13 2 3
13 14 3 4
14 15 4 5
15 16 5 6
16 17 6 7
17 18 7 8
18 19 8 9
19 20 9 10
20 22 10 11
22 24 11 12
24 25 12 13


>  <atomInfo>  (1) 
1  -0.0617809C 
2  -0.0333201C 
3  0.01718562C 
4  0.09043849C 
5  -0.3898176OA
6  0.13077455C 
7  -0.3850909OA
8  0.18324967C 
9  -0.3657353OA
10 -0.3459955OA
11 0.07187609C 
12 0.01666742C 
13 0.05520505C 
14 -0.3549052OA
15 0.14924819C 
16 -0.3262176OA
17 0.18323636C 
18 -0.2050597OA
19 -0.1993183OA
20 0.21743827C 
21 -0.3635668OA
22 0.13967183C 
23 -0.3847250OA
24 0.15550602C 
25 -0.2301079OA
26 -0.2513362OA


$$$$
