
     RDKit          3D

 23 24  0  0  0  0  0  0  0  0999 V2000
   -3.3843   -1.9566   -1.2954 C   0  0  0  0  0  0  0  0  0  0  0  0
   -2.3090   -0.9175   -1.1820 C   0  0  1  0  0  0  0  0  0  0  0  0
   -2.8880    0.4268   -1.0124 C   0  0  0  0  0  0  0  0  0  0  0  0
   -2.8660    0.9162    0.3991 C   0  0  2  0  0  0  0  0  0  0  0  0
   -3.4026    2.1556    0.5634 O   0  0  0  0  0  0  0  0  0  0  0  0
   -1.4083    0.8308    0.8753 C   0  0  2  0  0  0  0  0  0  0  0  0
   -0.6380    1.1685   -0.2551 O   0  0  0  0  0  0  0  0  0  0  0  0
   -1.1975   -0.6791    1.0598 C   0  0  1  0  0  0  0  0  0  0  0  0
   -2.2812   -1.2052    1.7937 O   0  0  0  0  0  0  0  0  0  0  0  0
   -1.1856   -1.2846   -0.3021 C   0  0  1  0  0  0  0  0  0  0  0  0
   -1.0315   -2.7181   -0.1655 N   0  0  0  0  0  0  0  0  0  0  0  0
    0.2843   -3.0015    0.4005 C   0  0  0  0  0  3  0  0  0  0  0  0
    1.3162   -2.1365   -0.2814 C   0  0  0  0  0  0  0  0  0  0  0  0
    2.1390   -1.3929    0.7426 C   0  0  1  0  0  0  0  0  0  0  0  0
    3.0254   -2.2780    1.3560 O   0  0  0  0  0  0  0  0  0  0  0  0
    2.9384   -0.3153    0.0535 C   0  0  1  0  0  0  0  0  0  0  0  0
    2.8991   -0.4888   -1.3221 O   0  0  0  0  0  0  0  0  0  0  0  0
    2.4748    1.0788    0.4397 C   0  0  1  0  0  0  0  0  0  0  0  0
    3.5365    1.9037    0.7751 O   0  0  0  0  0  0  0  0  0  0  0  0
    1.6050    1.7045   -0.5960 C   0  0  2  0  0  0  0  0  0  0  0  0
    2.2068    2.6793   -1.3497 O   0  0  0  0  0  0  0  0  0  0  0  0
    0.2669    2.1675   -0.0043 C   0  0  1  0  0  0  0  0  0  0  0  0
   -0.1001    3.3422   -0.6929 O   0  0  0  0  0  0  0  0  0  0  0  0
  2  1  1  1
  2  3  1  0
  3  4  1  0
  4  5  1  6
  4  6  1  0
  6  7  1  6
  6  8  1  0
  8  9  1  1
  8 10  1  0
 10 11  1  1
 11 12  1  0
 12 13  1  0
 13 14  1  0
 14 15  1  6
 14 16  1  0
 16 17  1  6
 16 18  1  0
 18 19  1  6
 18 20  1  0
 20 21  1  1
 20 22  1  0
 22 23  1  6
 10  2  1  0
 22  7  1  0
M  RAD  1  12   2
M  END
>  <fragInfo>  (1) 
1 2 3 4 5 6 7 8 9 10 11 12 13 14 15 16 17 18 19 20 21 22 23


>  <torsionInfo>  (1) 


>  <atomInfo>  (1) 
1  -0.0608233C 
2  -0.0236281C 
3  -0.0201631C 
4  0.08320511C 
5  -0.3903028OA
6  0.11398486C 
7  -0.3413246OA
8  0.09833320C 
9  -0.3886663OA
10 0.03840326C 
11 -0.3066597NA
12 0.02511885C 
13 -0.0073297C 
14 0.08407230C 
15 -0.3902628OA
16 0.10848775C 
17 -0.3876059OA
18 0.11323051C 
19 -0.3873970OA
20 0.13305003C 
21 -0.3849928OA
22 0.18358482C 
23 -0.3657310OA


$$$$
