
     RDKit          3D

 42 43  0  0  0  0  0  0  0  0999 V2000
   -6.1441    1.3431   -2.9168 C   0  0  0  0  0  0  0  0  0  0  0  0
   -4.8818    1.0018   -2.4235 O   0  0  0  0  0  0  0  0  0  0  0  0
   -4.5344    1.8401   -1.3693 C   0  0  0  0  0  3  0  0  0  0  0  0
   -5.2915    1.6001   -0.2236 O   0  0  0  0  0  0  0  0  0  0  0  0
   -5.0453    0.2982    0.1702 C   0  0  2  0  0  0  0  0  0  0  0  0
   -5.8218   -0.0768    1.4168 C   0  0  0  0  0  0  0  0  0  0  0  0
   -5.4613    0.8158    2.5853 C   0  0  0  0  0  2  0  0  0  0  0  0
   -3.5860    0.1479    0.4843 C   0  0  1  0  0  0  0  0  0  0  0  0
   -2.7022    0.4549   -0.7049 C   0  0  0  0  0  3  0  0  0  0  0  0
   -1.2733    0.1935   -0.2734 C   0  0  0  0  0  3  0  0  0  0  0  0
   -0.8849   -1.2600   -0.4386 C   0  0  2  0  0  0  0  0  0  0  0  0
    0.4006   -1.4116    0.0079 O   0  0  0  0  0  0  0  0  0  0  0  0
   -1.1134   -1.6436   -1.8602 C   0  0  0  0  0  0  0  0  0  0  0  0
   -2.5846   -1.4414   -2.1747 C   0  0  0  0  0  0  0  0  0  0  0  0
   -1.6990   -2.0995    0.3560 O   0  0  0  0  0  0  0  0  0  0  0  0
   -1.3013   -3.3287    0.1048 O   0  0  0  0  0  0  0  0  0  0  0  0
   -0.4770   -3.8522    1.0719 C   0  0  0  0  0  3  0  0  0  0  0  0
    0.6715   -3.1317    1.3029 O   0  0  0  0  0  0  0  0  0  0  0  0
    1.7929   -3.6710    0.6788 C   0  0  0  0  0  3  0  0  0  0  0  0
    2.4435   -2.5353   -0.1223 C   0  0  2  0  0  0  0  0  0  0  0  0
    2.8130   -1.5712    0.8306 O   0  0  0  0  0  0  0  0  0  0  0  0
    1.2912   -1.8975   -0.9119 C   0  0  1  0  0  0  0  0  0  0  0  0
    0.7980   -2.8721   -1.7454 O   0  0  0  0  0  0  0  0  0  0  0  0
    1.8547   -3.2390   -2.6103 C   0  0  0  0  0  3  0  0  0  0  0  0
    2.0490   -4.6059   -2.5896 O   0  0  0  0  0  0  0  0  0  0  0  0
   -3.1696    0.9549    1.6924 C   0  0  0  0  0  3  0  0  0  0  0  0
   -2.7312    2.2223    1.2448 O   0  0  0  0  0  0  0  0  0  0  0  0
   -1.9695    2.7448    2.2986 C   0  0  0  0  0  0  0  0  0  0  0  0
   -1.4351    3.9923    1.9610 O   0  0  0  0  0  0  0  0  0  0  0  0
   -0.1694    4.1134    2.5336 C   0  0  0  0  0  3  0  0  0  0  0  0
    0.7351    3.5300    1.6474 O   0  0  0  0  0  0  0  0  0  0  0  0
    1.7249    2.8035    2.3149 C   0  0  0  0  0  3  0  0  0  0  0  0
    1.8619    1.5379    1.7154 O   0  0  0  0  0  0  0  0  0  0  0  0
    2.9641    1.5407    0.8766 C   0  0  0  0  0  3  0  0  0  0  0  0
    2.9105    0.5435   -0.0923 O   0  0  0  0  0  0  0  0  0  0  0  0
    3.6204   -0.5883    0.2775 C   0  0  2  0  0  0  0  0  0  0  0  0
    4.2824   -1.1546   -0.8116 O   0  0  0  0  0  0  0  0  0  0  0  0
    5.0915   -0.1673   -1.3646 C   0  0  0  0  0  3  0  0  0  0  0  0
    5.2872    0.8990   -0.5119 O   0  0  0  0  0  0  0  0  0  0  0  0
    5.5681    2.0362   -1.2643 C   0  0  0  0  0  3  0  0  0  0  0  0
    6.9167    2.5746   -1.0181 C   0  0  0  0  0  0  0  0  0  0  0  0
    7.1993    3.3592   -0.1445 O   0  0  0  0  0  0  0  0  0  0  0  0
  1  2  1  0
  2  3  1  0
  3  4  1  0
  4  5  1  0
  5  6  1  1
  6  7  1  0
  5  8  1  0
  8  9  1  6
  9 10  1  0
 10 11  1  0
 11 12  1  0
 11 13  1  6
 13 14  1  0
 11 15  1  0
 15 16  1  0
 16 17  1  0
 17 18  1  0
 18 19  1  0
 20 19  1  1
 20 21  1  0
 20 22  1  0
 22 23  1  6
 23 24  1  0
 24 25  1  0
  8 26  1  0
 26 27  1  0
 27 28  1  0
 28 29  1  0
 29 30  1  0
 30 31  1  0
 31 32  1  0
 32 33  1  0
 33 34  1  0
 34 35  1  0
 35 36  1  0
 36 37  1  6
 37 38  1  0
 38 39  1  0
 39 40  1  0
 40 41  1  0
 41 42  2  0
 22 12  1  0
 36 21  1  0
M  RAD  8   3   2   7   3   9   2  10   2  17   2  19   2  24   2  26   2
M  RAD  5  30   2  32   2  34   2  38   2  40   2
M  END
>  <fragInfo>  (1) 
8 9 10 11 12 15 16 17 18 19 20 21 22 26 27 28 29 30 31 32 33 34 35 36
1 2
3
4
5
6 7
13 14
23
24 25
37
38
39
40
41 42


>  <torsionInfo>  (1) 
5 8 4 0
11 13 0 6
22 23 0 7
36 37 0 9
2 3 1 2
3 4 2 3
4 5 3 4
5 6 4 5
23 24 7 8
37 38 9 10
38 39 10 11
39 40 11 12
40 41 12 13


>  <atomInfo>  (1) 
1  0.03885651C 
2  -0.3513312OA
3  0.20895200C 
4  -0.3442117OA
5  0.06683748C 
6  -0.0228162C 
7  -0.0325190C 
8  0.01779550C 
9  -0.0211577C 
10 0.02793999C 
11 0.20737407C 
12 -0.3147478OA
13 0.00189206C 
14 -0.0601226C 
15 -0.1977356OA
16 -0.1956794OA
17 0.24601406C 
18 -0.3365285OA
19 0.12133669C 
20 0.14296415C 
21 -0.3181805OA
22 0.19286950C 
23 -0.3155925OA
24 0.20902648C 
25 -0.3638744OA
26 0.09255801C 
27 -0.3489472OA
28 0.15017334C 
29 -0.3211392OA
30 0.21406820C 
31 -0.3128231OA
32 0.21461749C 
33 -0.3127148OA
34 0.21683920C 
35 -0.2943451OA
36 0.27651083C 
37 -0.2944198OA
38 0.21486183C 
39 -0.3335465OA
40 0.14900818C 
41 0.15155538C 
42 -0.3003336OA


$$$$
