
     RDKit          3D

 23 24  0  0  0  0  0  0  0  0999 V2000
    2.4808    0.5513    2.0564 C   0  0  0  0  0  0  0  0  0  0  0  0
    1.9293    1.3063    0.8642 C   0  0  1  0  0  0  0  0  0  0  0  0
    3.0229    1.8356   -0.0315 C   0  0  0  0  0  0  0  0  0  0  0  0
    3.8980    0.7295   -0.5523 C   0  0  2  0  0  0  0  0  0  0  0  0
    3.8188    0.5795   -1.9347 O   0  0  0  0  0  0  0  0  0  0  0  0
    3.4634   -0.5680    0.0712 C   0  0  2  0  0  0  0  0  0  0  0  0
    4.2472   -1.6240   -0.3691 O   0  0  0  0  0  0  0  0  0  0  0  0
    2.0280   -0.8926   -0.2465 C   0  0  1  0  0  0  0  0  0  0  0  0
    1.6492   -2.0197    0.4847 O   0  0  0  0  0  0  0  0  0  0  0  0
    1.1269    0.2970    0.0523 C   0  0  1  0  0  0  0  0  0  0  0  0
   -0.0398   -0.1635    0.7646 N   0  0  0  0  0  0  0  0  0  0  0  0
   -0.8600   -0.8997   -0.1806 C   0  0  1  0  0  0  0  0  0  0  0  0
   -1.9582   -1.5646    0.6014 C   0  0  2  0  0  0  0  0  0  0  0  0
   -1.4853   -2.8218    1.2755 C   0  0  0  0  0  0  0  0  0  0  0  0
   -3.0631   -1.7882   -0.2332 O   0  0  0  0  0  0  0  0  0  0  0  0
   -4.1023   -1.0101    0.3017 C   0  0  0  0  0  3  0  0  0  0  0  0
   -3.5221    0.1546    0.8260 O   0  0  0  0  0  0  0  0  0  0  0  0
   -3.3715    1.1413   -0.1400 C   0  0  1  0  0  0  0  0  0  0  0  0
   -3.9204    2.3500    0.2601 O   0  0  0  0  0  0  0  0  0  0  0  0
   -1.9109    1.3413   -0.4521 C   0  0  2  0  0  0  0  0  0  0  0  0
   -1.6998    2.4763   -1.2182 O   0  0  0  0  0  0  0  0  0  0  0  0
   -1.3986    0.1010   -1.1710 C   0  0  1  0  0  0  0  0  0  0  0  0
   -0.3326    0.4883   -1.9958 O   0  0  0  0  0  0  0  0  0  0  0  0
  2  1  1  1
  2  3  1  0
  3  4  1  0
  4  5  1  6
  4  6  1  0
  6  7  1  6
  6  8  1  0
  8  9  1  1
  8 10  1  0
 10 11  1  1
 12 11  1  1
 12 13  1  0
 13 14  1  6
 13 15  1  0
 15 16  1  0
 16 17  1  0
 17 18  1  0
 18 19  1  1
 18 20  1  0
 20 21  1  6
 20 22  1  0
 22 23  1  6
 10  2  1  0
 22 12  1  0
M  RAD  1  16   2
M  END
>  <fragInfo>  (1) 
12 13 14 15 16 17 18 19 20 21 22 23
1 2 3 4 5 6 7 8 9 10
11


>  <torsionInfo>  (1) 
11 12 2 0
10 11 1 2


>  <atomInfo>  (1) 
1  -0.0608233C 
2  -0.0236262C 
3  -0.0201755C 
4  0.08280077C 
5  -0.3903155OA
6  0.10722524C 
7  -0.3876533OA
8  0.09793141C 
9  -0.3886791OA
10 0.03852115C 
11 -0.3034781NA
12 0.06234938C 
13 0.07599224C 
14 -0.0369010C 
15 -0.3430944OA
16 0.21198632C 
17 -0.3157496OA
18 0.18631791C 
19 -0.3656552OA
20 0.13214428C 
21 -0.3850340OA
22 0.10265891C 
23 -0.3884789OA


$$$$
