
     RDKit          3D

 28 30  0  0  0  0  0  0  0  0999 V2000
    2.9037    0.6383   -2.3541 C   0  0  0  0  0  0  0  0  0  0  0  0
    3.7743    1.1973   -1.2490 C   0  0  2  0  0  0  0  0  0  0  0  0
    5.0896    0.4233   -1.3026 C   0  0  0  0  0  0  0  0  0  0  0  0
    3.1733    0.9410    0.1056 C   0  0  0  0  0  0  0  0  0  0  0  0
    1.6910    1.0387    0.0768 C   0  0  1  0  0  0  0  0  0  0  0  0
    1.1386    2.4140    0.0410 C   0  0  0  0  0  0  0  0  0  0  0  0
    0.4124    2.8289    1.2829 C   0  0  1  0  0  0  0  0  0  0  0  0
   -0.9241    3.4423    1.0293 C   0  0  0  0  0  0  0  0  0  0  0  0
    0.4048    1.7828    2.3594 C   0  0  0  0  0  3  0  0  0  0  0  0
   -0.9690    1.2163    2.6238 C   0  0  0  0  0  0  0  0  0  0  0  0
   -0.8791   -0.2940    2.8819 C   0  0  0  0  0  0  0  0  0  0  0  0
   -1.4387   -0.9667    1.6545 C   0  0  1  0  0  0  0  0  0  0  0  0
   -0.9790   -0.1405    0.4562 C   0  0  2  0  0  0  0  0  0  0  0  0
   -2.0370   -0.1665   -0.6217 C   0  0  0  0  0  3  0  0  0  0  0  0
   -3.3236    0.4112   -0.0881 C   0  0  0  0  0  0  0  0  0  0  0  0
   -4.3312    0.3689   -1.1673 C   0  0  0  0  0  0  0  0  0  0  0  0
   -4.1041    1.0597   -2.3795 N   0  0  0  0  0  1  0  0  0  0  0  0
   -5.3998   -0.2921   -0.9954 N   0  0  0  0  0  2  0  0  0  0  0  0
   -1.0827   -2.3682    1.4792 C   0  0  1  0  0  0  0  0  0  0  0  0
   -0.8646   -3.1455    2.5469 O   0  0  0  0  0  0  0  0  0  0  0  0
   -1.0229   -2.9341    0.1378 C   0  0  0  0  0  3  0  0  0  0  0  0
   -0.2864   -2.0516   -0.8802 C   0  0  0  0  0  0  0  0  0  0  0  0
    0.2405   -0.8848   -0.1037 C   0  0  2  0  0  0  0  0  0  0  0  0
    1.0814   -1.4251    1.0331 C   0  0  0  0  0  0  0  0  0  0  0  0
    1.0330    0.0875   -0.8968 C   0  0  2  0  0  0  0  0  0  0  0  0
    2.0862   -0.5165   -1.7622 C   0  0  2  0  0  0  0  0  0  0  0  0
    3.0767   -1.3717   -0.9867 C   0  0  0  0  0  0  0  0  0  0  0  0
    1.5366   -1.2930   -2.9209 C   0  0  0  0  0  2  0  0  0  0  0  0
  1  2  1  0
  2  3  1  1
  2  4  1  0
  5  4  1  6
  5  6  1  0
  6  7  1  0
  7  8  1  6
  7  9  1  0
  9 10  1  0
 10 11  1  0
 12 11  1  1
 12 13  1  0
 13 14  1  6
 14 15  1  0
 15 16  1  0
 16 17  1  0
 16 18  2  0
 12 19  1  0
 19 20  1  1
 19 21  1  0
 21 22  1  0
 22 23  1  0
 23 24  1  1
 23 25  1  0
 25 26  1  1
 26 27  1  1
 26 28  1  0
 26  1  1  0
 25  5  1  0
 23 13  1  0
M  CHG  2  17   1  18  -1
M  RAD  5   9   2  14   2  17   2  21   2  28   3
M  END
>  <fragInfo>  (1) 
1 2 3 4 5 6 7 8 9 10 11 12 13 19 20 21 22 23 24 25 26 27 28
14
15
16 17 18


>  <torsionInfo>  (1) 
13 14 0 1
14 15 1 2
15 16 2 3


>  <atomInfo>  (1) 
1  -0.0446751C 
2  -0.0434663C 
3  -0.0624787C 
4  -0.0475173C 
5  -0.0370059C 
6  -0.0472633C 
7  -0.0408860C 
8  -0.0622238C 
9  -0.0357279C 
10 -0.0495479C 
11 -0.0473881C 
12 -0.0113097C 
13 -0.0267982C 
14 -0.0261300C 
15 0.02219695C 
16 0.20056296C 
17 0.43996959N 
18 -0.7400004NA
19 0.06028286C 
20 -0.3925281OA
21 -0.0091110C 
22 -0.0415805C 
23 -0.0251093C 
24 -0.0590471C 
25 -0.0271441C 
26 -0.0252847C 
27 -0.0590501C 
28 -0.0283712C 


$$$$
