
     RDKit          3D

 25 25  0  0  0  0  0  0  0  0999 V2000
   -4.5770   -0.3950   -1.5949 C   0  0  0  0  0  0  0  0  0  0  0  0
   -4.1334    0.8350   -0.8353 C   0  0  1  0  0  0  0  0  0  0  0  0
   -4.7716    0.8268    0.5136 C   0  0  0  0  0  0  0  0  0  0  0  0
   -4.4785   -0.3470    1.3618 C   0  0  2  0  0  0  0  0  0  0  0  0
   -4.6860    0.0209    2.7007 O   0  0  0  0  0  0  0  0  0  0  0  0
   -3.1023   -0.9033    1.2589 C   0  0  2  0  0  0  0  0  0  0  0  0
   -2.2877   -0.4648    2.2909 O   0  0  0  0  0  0  0  0  0  0  0  0
   -2.4166   -0.6751   -0.0523 C   0  0  1  0  0  0  0  0  0  0  0  0
   -2.7954   -1.6133   -1.0301 O   0  0  0  0  0  0  0  0  0  0  0  0
   -2.6222    0.7058   -0.6042 C   0  0  1  0  0  0  0  0  0  0  0  0
   -1.8921    0.8707   -1.8102 N   0  0  0  0  0  0  0  0  0  0  0  0
   -0.6125    1.4562   -1.6938 C   0  0  0  0  0  3  0  0  0  0  0  0
    0.4006    0.6027   -1.0115 C   0  0  2  0  0  0  0  0  0  0  0  0
    0.3745   -0.8067   -1.4093 C   0  0  0  0  0  0  0  0  0  0  0  0
    1.2999   -1.5783   -0.7685 O   0  0  0  0  0  0  0  0  0  0  0  0
    1.2453   -2.9122   -1.2114 C   0  0  0  0  0  0  0  0  0  0  0  0
    0.9596    1.0520    0.2334 C   0  0  0  0  0  0  0  0  0  0  0  0
    1.8932    0.3198    0.8731 O   0  0  0  0  0  0  0  0  0  0  0  0
    3.0517    0.2234    0.0600 C   0  0  1  0  0  0  0  0  0  0  0  0
    3.4673    1.5636   -0.1565 O   0  0  0  0  0  0  0  0  0  0  0  0
    4.1371   -0.4277    0.9423 C   0  0  2  0  0  0  0  0  0  0  0  0
    4.3164    0.5254    2.1452 C   0  0  0  0  0  0  0  0  0  0  0  0
    5.3851   -0.5720    0.1837 C   0  0  0  0  0  0  0  0  0  0  0  0
    6.4661   -1.1087    0.7476 O   0  0  0  0  0  0  0  0  0  0  0  0
    5.3785   -0.2498   -1.1330 O   0  0  0  0  0  0  0  0  0  0  0  0
  2  1  1  6
  2  3  1  0
  3  4  1  0
  4  5  1  1
  4  6  1  0
  6  7  1  1
  6  8  1  0
  8  9  1  6
  8 10  1  0
 10 11  1  6
 11 12  1  0
 13 12  1  1
 13 14  1  0
 14 15  1  0
 15 16  1  0
 13 17  1  0
 17 18  1  0
 18 19  1  0
 19 20  1  1
 19 21  1  0
 21 22  1  1
 21 23  1  0
 23 24  1  0
 23 25  1  0
 10  2  1  0
M  RAD  1  12   2
M  END
>  <fragInfo>  (1) 
1 2 3 4 5 6 7 8 9 10
11
12
13
14
15 16
17
18
19 20
21 22
23 24 25


>  <torsionInfo>  (1) 
10 11 0 1
11 12 1 2
12 13 2 3
13 14 3 4
13 17 3 6
14 15 4 5
17 18 6 7
18 19 7 8
19 21 8 9
21 23 9 10


>  <atomInfo>  (1) 
1  -0.0608233C 
2  -0.0236283C 
3  -0.0201755C 
4  0.08280077C 
5  -0.3903155OA
6  0.10722522C 
7  -0.3876533OA
8  0.09792934C 
9  -0.3886791OA
10 0.03840340C 
11 -0.3062919NA
12 0.03013721C 
13 0.02269158C 
14 0.05276326C 
15 -0.3842477OA
16 0.03547392C 
17 0.05632239C 
18 -0.3519633OA
19 0.16142743C 
20 -0.3675414OA
21 0.05759907C 
22 -0.0527418C 
23 0.15837297C 
24 -0.3677494OA
25 -0.3677494OA


$$$$
