
     RDKit          3D

 34 35  0  0  0  0  0  0  0  0999 V2000
    6.9171   -0.8078   -2.0977 C   0  0  0  0  0  0  0  0  0  0  0  0
    5.8880   -1.0245   -0.9928 C   0  0  0  0  0  0  0  0  0  0  0  0
    6.4268   -2.0218    0.0024 C   0  0  0  0  0  0  0  0  0  0  0  0
    5.6672    0.3270   -0.3121 C   0  0  0  0  0  0  0  0  0  0  0  0
    4.6485    0.1395    0.7903 C   0  0  0  0  0  0  0  0  0  0  0  0
    3.3310   -0.3597    0.2664 C   0  0  0  0  0  0  0  0  0  0  0  0
    2.3821   -0.5171    1.4250 C   0  0  1  0  0  0  0  0  0  0  0  0
    2.1361    0.7704    2.1616 C   0  0  0  0  0  0  0  0  0  0  0  0
    1.1071   -1.2155    1.0388 C   0  0  0  0  0  3  0  0  0  0  0  0
    0.3206   -0.5409   -0.0008 C   0  0  2  0  0  0  0  0  0  0  0  0
    0.9220   -0.3183   -1.3023 C   0  0  0  0  0  0  0  0  0  0  0  0
    1.1302    1.0660   -1.7589 C   0  0  2  0  0  0  0  0  0  0  0  0
    0.8018    2.1287   -0.7437 C   0  0  0  0  0  0  0  0  0  0  0  0
    0.6989    1.3860   -3.1353 C   0  0  0  0  0  0  0  0  0  0  0  0
   -0.2574    0.4538   -3.7704 C   0  0  1  0  0  0  0  0  0  0  0  0
    0.0166    0.4679   -5.2811 C   0  0  0  0  0  0  0  0  0  0  0  0
   -0.1581   -0.9684   -3.3255 C   0  0  0  0  0  0  0  0  0  0  0  0
   -1.5835   -1.5215   -3.2040 C   0  0  0  0  0  0  0  0  0  0  0  0
   -2.4449   -0.3812   -2.6870 C   0  0  2  0  0  0  0  0  0  0  0  0
   -1.7072    0.3108   -1.7329 O   0  0  0  0  0  0  0  0  0  0  0  0
   -3.7339   -0.8460   -2.0933 C   0  0  0  0  0  0  0  0  0  0  0  0
   -3.5875   -0.9692   -0.5944 C   0  0  0  0  0  0  0  0  0  0  0  0
   -4.5519    0.0136    0.0357 C   0  0  2  0  0  0  0  0  0  0  0  0
   -5.7022    0.0075   -0.7700 O   0  0  0  0  0  0  0  0  0  0  0  0
   -3.9989    1.4375   -0.0390 C   0  0  0  0  0  3  0  0  0  0  0  0
   -2.5636    1.4859    0.4426 C   0  0  0  0  0  0  0  0  0  0  0  0
   -1.6649    0.6569   -0.3995 C   0  0  0  0  0  0  0  0  0  0  0  0
   -0.7450    0.2781    0.4131 N   0  0  0  0  0  4  0  0  0  0  0  0
   -0.8286    0.7046    1.7374 N   0  0  0  0  0  0  0  0  0  0  0  0
   -1.4566   -0.1143    2.7720 C   0  0  0  0  0  0  0  0  0  0  0  0
   -1.4230    0.5179    4.0201 O   0  0  0  0  0  0  0  0  0  0  0  0
   -1.9841   -0.1433    5.1003 C   0  0  0  0  0  0  0  0  0  0  0  0
   -1.6345    0.2317    6.3218 C   0  0  0  0  0  0  0  0  0  0  0  0
   -2.3679   -0.6322    7.7132 S   0  0  0  0  0  1  0  0  0  0  0  0
  1  2  1  0
  2  3  1  0
  2  4  1  0
  4  5  1  0
  5  6  1  0
  6  7  1  0
  7  8  1  6
  7  9  1  0
 10  9  1  1
 10 11  1  0
 11 12  1  0
 12 13  1  1
 12 14  1  0
 14 15  1  0
 15 16  1  6
 15 17  1  0
 17 18  1  0
 19 18  1  1
 19 20  1  0
 19 21  1  0
 21 22  1  0
 22 23  1  0
 23 24  1  6
 23 25  1  0
 25 26  1  0
 26 27  1  0
 27 28  2  3
 28 29  1  0
 29 30  1  0
 30 31  1  0
 31 32  1  0
 32 33  2  3
 33 34  1  0
 28 10  1  0
 27 20  1  0
M  CHG  2  28   1  34   1
M  RAD  3   9   2  25   2  34   3
M  END
>  <fragInfo>  (1) 
10 11 12 13 14 15 16 17 18 19 20 21 22 23 24 25 26 27 28
1 2 3
4
5
6
7 8
9
29
30
31
32 33 34


>  <torsionInfo>  (1) 
9 10 6 0
28 29 0 7
2 4 1 2
4 5 2 3
5 6 3 4
6 7 4 5
7 9 5 6
29 30 7 8
30 31 8 9
31 32 9 10


>  <atomInfo>  (1) 
1  -0.0627736C 
2  -0.0471324C 
3  -0.0627736C 
4  -0.0509642C 
5  -0.0527938C 
6  -0.0501671C 
7  -0.0344668C 
8  -0.0619745C 
9  0.03551229C 
10 0.18823165C 
11 0.01481885C 
12 -0.0376077C 
13 -0.0622460C 
14 -0.0478616C 
15 -0.0438861C 
16 -0.0624973C 
17 -0.0471763C 
18 -0.0153929C 
19 0.10461866C 
20 -0.4428391OA
21 -0.0131824C 
22 -0.0231817C 
23 0.05799565C 
24 -0.3928078OA
25 0.00416439C 
26 0.07828772C 
27 0.36547581C 
28 -0.0798295N 
29 -0.1573671NA
30 0.20691089C 
31 -0.4702885OA
32 0.14942685C 
33 0.29731867C 
34 0.52784619S 


$$$$
