
     RDKit          3D

 18 17  0  0  0  0  0  0  0  0999 V2000
   -4.4548   -2.1725    0.4017 C   0  0  0  0  0  0  0  0  0  0  0  0
   -2.9975   -2.0298    0.1508 C   0  0  0  0  0  0  0  0  0  0  0  0
   -2.1193   -2.3462    1.0212 O   0  0  0  0  0  0  0  0  0  0  0  0
   -2.6279   -1.5312   -1.1193 N   0  0  0  0  0  0  0  0  0  0  0  0
   -1.3138   -1.3136   -1.5938 C   0  0  0  0  0  3  0  0  0  0  0  0
   -0.4458   -0.6242   -0.5684 C   0  0  1  0  0  0  0  0  0  0  0  0
    0.7160    0.0512   -1.2761 C   0  0  0  0  0  3  0  0  0  0  0  0
    1.6026    0.6336   -0.2201 C   0  0  1  0  0  0  0  0  0  0  0  0
    0.8736    1.5641    0.6901 C   0  0  0  0  0  0  0  0  0  0  0  0
    2.4005   -0.4027    0.4642 C   0  0  0  0  0  0  0  0  0  0  0  0
    3.2987    0.1974    1.5131 C   0  0  0  0  0  0  0  0  0  0  0  0
    4.2696    1.1856    0.9322 C   0  0  0  0  0  3  0  0  0  0  0  0
    5.1495    0.5908   -0.1099 C   0  0  0  0  0  3  0  0  0  0  0  0
    5.1962   -0.7986   -0.0210 O   0  0  0  0  0  0  0  0  0  0  0  0
   -1.2568    0.3601    0.2704 C   0  0  0  0  0  3  0  0  0  0  0  0
   -1.8969    1.4200   -0.5792 C   0  0  0  0  0  3  0  0  0  0  0  0
   -2.9883    2.0518    0.2397 C   0  0  0  0  0  0  0  0  0  0  0  0
   -3.4053    3.1642   -0.0237 O   0  0  0  0  0  0  0  0  0  0  0  0
  1  2  1  0
  2  3  2  0
  2  4  1  0
  4  5  1  0
  6  5  1  6
  6  7  1  0
  7  8  1  0
  8  9  1  1
  8 10  1  0
 10 11  1  0
 11 12  1  0
 12 13  1  0
 13 14  1  0
  6 15  1  0
 15 16  1  0
 16 17  1  0
 17 18  2  0
M  RAD  6   5   2   7   2  12   2  13   2  15   2  16   2
M  END
>  <fragInfo>  (1) 
1 2 3 4
5
6
7
8 9
10
11
12
13 14
15
16
17 18


>  <torsionInfo>  (1) 
4 5 0 1
5 6 1 2
6 7 2 3
6 15 2 9
7 8 3 4
8 10 4 5
10 11 5 6
11 12 6 7
12 13 7 8
15 16 9 10
16 17 10 11


>  <atomInfo>  (1) 
1  0.01483178C 
2  0.21666956C 
3  -0.2754583OA
4  -0.3512333N 
5  0.05268817C 
6  -0.0117786C 
7  -0.0302210C 
8  -0.0407833C 
9  -0.0622221C 
10 -0.0500515C 
11 -0.0472507C 
12 -0.0072904C 
13 0.08331691C 
14 -0.3901204OA
15 -0.0221819C 
16 0.02777757C 
17 0.12359108C 
18 -0.3030509OA


$$$$
