
     RDKit          3D

 12 11  0  0  0  0  0  0  0  0999 V2000
    4.8639   -0.5971    0.0426 C   0  0  0  0  0  0  0  0  0  0  0  0
    3.5385   -0.4263   -0.3581 O   0  0  0  0  0  0  0  0  0  0  0  0
    2.6965   -0.4095    0.7416 C   0  0  0  0  0  3  0  0  0  0  0  0
    1.5404    0.2720    0.3988 O   0  0  0  0  0  0  0  0  0  0  0  0
    1.0663   -0.1308   -0.8575 C   0  0  2  0  0  0  0  0  0  0  0  0
    1.8118    0.6030   -1.9416 C   0  0  0  0  0  0  0  0  0  0  0  0
   -0.4088    0.2445   -0.9531 C   0  0  0  0  0  3  0  0  0  0  0  0
   -0.9184    0.2238    0.3908 N   0  0  0  0  0  0  0  0  0  0  0  0
   -2.3275    0.5026    0.4844 C   0  0  0  0  0  3  0  0  0  0  0  0
   -2.9268   -0.6026    1.3468 C   0  0  0  0  0  0  0  0  0  0  0  0
   -4.0074   -1.2493    0.4877 C   0  0  0  0  0  2  0  0  0  0  0  0
   -4.9283   -0.2246    0.2176 O   0  0  0  0  0  0  0  0  0  0  0  0
  1  2  1  0
  2  3  1  0
  3  4  1  0
  4  5  1  0
  5  6  1  6
  5  7  1  0
  7  8  1  0
  8  9  1  0
  9 10  1  0
 10 11  1  0
 11 12  1  0
M  RAD  4   3   2   7   2   9   2  11   3
M  END
>  <fragInfo>  (1) 
1 2
3
4
5 6
7
8
9
10
11 12


>  <torsionInfo>  (1) 
2 3 0 1
3 4 1 2
4 5 2 3
5 7 3 4
7 8 4 5
8 9 5 6
9 10 6 7
10 11 7 8


>  <atomInfo>  (1) 
1  0.03885652C 
2  -0.3513307OA
3  0.20898785C 
4  -0.3432119OA
5  0.07497755C 
6  -0.0369418C 
7  0.05128072C 
8  -0.3055846NA
9  0.02558310C 
10 -0.0011680C 
11 0.12932886C 
12 -0.3835397OA


$$$$
