
     RDKit          3D

 29 28  0  0  0  0  0  0  0  0999 V2000
    6.3339    1.7847   -0.8006 C   0  0  0  0  0  0  0  0  0  0  0  0
    7.1457    2.4871    0.2697 C   0  0  0  0  0  0  0  0  0  0  0  0
    7.6398    1.5180    1.3151 C   0  0  2  0  0  0  0  0  0  0  0  0
    8.5251    0.4434    0.7156 C   0  0  0  0  0  0  0  0  0  0  0  0
    6.4572    0.8328    1.9410 C   0  0  0  0  0  0  0  0  0  0  0  0
    6.2705    0.9560    3.1799 O   0  0  0  0  0  0  0  0  0  0  0  0
    5.5752    0.0761    1.1973 O   0  0  0  0  0  0  0  0  0  0  0  0
    4.4879   -0.5347    1.8672 C   0  0  0  0  0  3  0  0  0  0  0  0
    3.6827   -1.2970    0.8360 C   0  0  0  0  0  0  0  0  0  0  0  0
    2.6125   -0.4340    0.2347 C   0  0  2  0  0  0  0  0  0  0  0  0
    1.6545    0.0613    1.2831 C   0  0  0  0  0  0  0  0  0  0  0  0
    1.8988   -1.2051   -0.7869 C   0  0  0  0  0  0  0  0  0  0  0  0
    0.6139   -1.3949   -0.7314 C   0  0  0  0  0  0  0  0  0  0  0  0
   -0.2420   -0.8880    0.3070 C   0  0  0  0  0  0  0  0  0  0  0  0
   -1.5432   -1.1183    0.3032 C   0  0  0  0  0  0  0  0  0  0  0  0
   -2.2488   -1.9000   -0.7376 C   0  0  2  0  0  0  0  0  0  0  0  0
   -1.2551   -2.4767   -1.7221 C   0  0  0  0  0  0  0  0  0  0  0  0
   -3.3050   -1.0797   -1.4455 C   0  0  2  0  0  0  0  0  0  0  0  0
   -2.6448    0.0869   -2.0921 C   0  0  0  0  0  0  0  0  0  0  0  0
   -3.5587    0.9991   -2.8361 C   0  0  0  0  0  0  0  0  0  0  0  0
   -4.2477    0.2356   -3.9332 C   0  0  0  0  0  0  0  0  0  0  0  0
   -5.0390   -0.8859   -3.3368 C   0  0  0  0  0  0  0  0  0  0  0  0
   -5.6724   -1.5858   -4.3604 O   0  0  0  0  0  0  0  0  0  0  0  0
   -4.3818   -0.7870   -0.6563 O   0  0  0  0  0  0  0  0  0  0  0  0
   -4.1011   -0.0674    0.4783 C   0  0  0  0  0  0  0  0  0  0  0  0
   -5.4168    0.1545    1.2142 C   0  0  0  0  0  0  0  0  0  0  0  0
   -5.1865    0.9452    2.4824 C   0  0  0  0  0  0  0  0  0  0  0  0
   -6.5066    1.1242    3.1471 C   0  0  0  0  0  0  0  0  0  0  0  0
   -7.5481    0.6692    2.6674 O   0  0  0  0  0  0  0  0  0  0  0  0
  1  2  1  0
  2  3  1  0
  3  4  1  6
  3  5  1  0
  5  6  2  0
  5  7  1  0
  7  8  1  0
  8  9  1  0
  9 10  1  0
 10 11  1  1
 10 12  1  0
 12 13  2  3
 13 14  1  0
 14 15  2  3
 15 16  1  0
 16 17  1  6
 16 18  1  0
 18 19  1  1
 19 20  1  0
 20 21  1  0
 21 22  1  0
 22 23  1  0
 18 24  1  0
 24 25  1  0
 25 26  1  0
 26 27  1  0
 27 28  1  0
 28 29  2  0
M  RAD  1   8   2
M  END
>  <fragInfo>  (1) 
1 2
3 4
5 6
7
8
9
10 11
12 13
14 15
16 17
18
19
20
21
22 23
24
25
26
27
28 29


>  <torsionInfo>  (1) 
2 3 0 1
3 5 1 2
5 7 2 3
7 8 3 4
8 9 4 5
9 10 5 6
10 12 6 7
13 14 7 8
15 16 8 9
16 18 9 10
18 19 10 11
18 24 10 15
19 20 11 12
20 21 12 13
21 22 13 14
24 25 15 16
25 26 16 17
26 27 17 18
27 28 18 19


>  <atomInfo>  (1) 
1  -0.0645670C 
2  -0.0430349C 
3  0.05379706C 
4  -0.0519474C 
5  0.30854598C 
6  -0.2519620OA
7  -0.4581886OA
8  0.13913935C 
9  -0.0059752C 
10 -0.0222187C 
11 -0.0588579C 
12 -0.0815625C 
13 -0.0663095C 
14 -0.0662162C 
15 -0.0791230C 
16 0.00050881C 
17 -0.0565027C 
18 0.06346527C 
19 -0.0260765C 
20 -0.0486337C 
21 -0.0297820C 
22 0.04305405C 
23 -0.3963765OA
24 -0.3776071OA
25 0.04737394C 
26 -0.0229509C 
27 0.00519676C 
28 0.11957741C 
29 -0.3034013OA


$$$$
