
     RDKit          3D

  9  8  0  0  0  0  0  0  0  0999 V2000
    3.2605    0.4575    0.5787 O   0  0  0  0  0  0  0  0  0  0  0  0
    2.2866   -0.2143    0.0264 O   0  0  0  0  0  0  0  0  0  0  0  0
    1.0913    0.4812    0.2009 C   0  0  0  0  0  3  0  0  0  0  0  0
    0.2354   -0.3488    0.9053 O   0  0  0  0  0  0  0  0  0  0  0  0
   -1.1010   -0.0788    0.7056 C   0  0  2  0  0  0  0  0  0  0  0  0
   -1.8981   -1.2576    0.2285 C   0  0  0  0  0  0  0  0  0  0  0  0
   -1.2448   -2.4076    0.6614 O   0  0  0  0  0  0  0  0  0  0  0  0
   -1.3669    1.0726   -0.2183 C   0  0  0  0  0  3  0  0  0  0  0  0
   -1.2631    2.2958    0.4231 O   0  0  0  0  0  0  0  0  0  0  0  0
  1  2  1  0
  2  3  1  0
  3  4  1  0
  4  5  1  0
  5  6  1  6
  6  7  1  0
  5  8  1  0
  8  9  1  0
M  RAD  2   3   2   8   2
M  END
>  <fragInfo>  (1) 
1 2
3
4
5
6 7
8 9


>  <torsionInfo>  (1) 
2 3 0 1
3 4 1 2
4 5 2 3
5 6 3 4
5 8 3 5


>  <atomInfo>  (1) 
1  -0.2489199OA
2  -0.2014076OA
3  0.24557590C 
4  -0.3370928OA
5  0.11248574C 
6  0.07213569C 
7  -0.3935664OA
8  0.11099828C 
9  -0.3874995OA


$$$$
