
     RDKit          3D

 24 25  0  0  0  0  0  0  0  0999 V2000
    2.3115   -2.3289   -0.6190 C   0  0  0  0  0  0  0  0  0  0  0  0
    2.6448   -0.9841   -0.0388 C   0  0  1  0  0  0  0  0  0  0  0  0
    3.6263   -0.2124   -0.9485 C   0  0  0  0  0  0  0  0  0  0  0  0
    4.0380    1.0258   -0.2089 C   0  0  2  0  0  0  0  0  0  0  0  0
    5.2534    0.7974    0.4624 O   0  0  0  0  0  0  0  0  0  0  0  0
    3.0632    1.4817    0.8432 C   0  0  2  0  0  0  0  0  0  0  0  0
    3.2001    0.7475    2.0361 O   0  0  0  0  0  0  0  0  0  0  0  0
    1.6412    1.3049    0.4033 C   0  0  1  0  0  0  0  0  0  0  0  0
    1.3320    2.0166   -0.7718 O   0  0  0  0  0  0  0  0  0  0  0  0
    1.4489   -0.1418    0.0693 C   0  0  1  0  0  0  0  0  0  0  0  0
    0.4384   -0.2376   -0.9171 N   0  0  0  0  0  0  0  0  0  0  0  0
   -0.7175   -0.9307   -0.3235 C   0  0  1  0  0  0  0  0  0  0  0  0
   -1.1869   -0.1923    0.8897 C   0  0  1  0  0  0  0  0  0  0  0  0
   -2.2008    0.8627    0.7658 C   0  0  0  0  0  0  0  0  0  0  0  0
   -1.7650    2.1116    0.3540 O   0  0  0  0  0  0  0  0  0  0  0  0
   -2.8754    2.9634    0.3726 C   0  0  0  0  0  2  0  0  0  0  0  0
   -1.8251   -1.2446    1.6161 O   0  0  0  0  0  0  0  0  0  0  0  0
   -2.5504   -1.9665    0.6805 C   0  0  1  0  0  0  0  0  0  0  0  0
   -3.5760   -2.5894    1.3981 O   0  0  0  0  0  0  0  0  0  0  0  0
   -3.0753   -1.1053   -0.4638 C   0  0  2  0  0  0  0  0  0  0  0  0
   -3.9869   -1.9037   -1.1371 O   0  0  0  0  0  0  0  0  0  0  0  0
   -1.8577   -0.8300   -1.3819 C   0  0  1  0  0  0  0  0  0  0  0  0
   -1.8756    0.5772   -1.6438 O   0  0  0  0  0  0  0  0  0  0  0  0
   -1.5052    0.7786   -2.8909 O   0  0  0  0  0  0  0  0  0  0  0  0
  2  1  1  6
  2  3  1  0
  3  4  1  0
  4  5  1  1
  4  6  1  0
  6  7  1  1
  6  8  1  0
  8  9  1  6
  8 10  1  0
 10 11  1  6
 12 11  1  6
 12 13  1  0
 13 14  1  6
 14 15  1  0
 15 16  1  0
 13 17  1  0
 17 18  1  0
 18 19  1  1
 18 20  1  0
 20 21  1  6
 20 22  1  0
 22 23  1  1
 23 24  1  0
 10  2  1  0
 22 12  1  0
M  RAD  1  16   3
M  END
>  <fragInfo>  (1) 
1 2 3 4 5 6 7 8 9 10
11
12 13 17 18 19 20 21 22
14
15 16
23 24


>  <torsionInfo>  (1) 
10 11 0 1
11 12 1 2
13 14 2 3
22 23 2 5
14 15 3 4


>  <atomInfo>  (1) 
1  -0.0608233C 
2  -0.0236262C 
3  -0.0201755C 
4  0.08280077C 
5  -0.3903155OA
6  0.10722524C 
7  -0.3876533OA
8  0.09793144C 
9  -0.3886791OA
10 0.03852484C 
11 -0.3032817NA
12 0.06842671C 
13 0.10213455C 
14 0.07525743C 
15 -0.3698138OA
16 0.11516881C 
17 -0.3426481OA
18 0.18361461C 
19 -0.3657306OA
20 0.13550113C 
21 -0.3848929OA
22 0.14127806C 
23 -0.2313632OA
24 -0.2513770OA


$$$$
