
     RDKit          3D

 23 25  0  0  0  0  0  0  0  0999 V2000
   -2.9795    1.5241   -1.1756 C   0  0  0  0  0  0  0  0  0  0  0  0
   -3.0167    0.1361   -0.9547 C   0  0  0  0  0  0  0  0  0  0  0  0
   -2.8981   -0.9821   -0.6287 C   0  0  0  0  0  0  0  0  0  0  0  0
   -2.3284   -2.0361    0.1342 C   0  0  0  0  0  0  0  0  0  0  0  0
   -1.1621   -2.0738    0.7423 C   0  0  0  0  0  0  0  0  0  0  0  0
   -0.5885   -3.1340    1.5102 C   0  0  0  0  0  0  0  0  0  0  0  0
   -1.3848   -4.3055    1.6388 N   0  0  0  0  0  0  0  0  0  0  0  0
   -0.3520   -0.7890    0.5890 C   0  0  0  0  0  0  0  0  0  0  0  0
    1.0325   -0.7060    0.7316 C   0  0  2  0  0  0  0  0  0  0  0  0
   -1.1709    0.2208    0.3465 C   0  0  0  0  0  0  0  0  0  0  0  0
   -0.9636    1.5262    0.1285 C   0  0  0  0  0  0  0  0  0  0  0  0
   -1.8393    2.2277   -0.6414 C   0  0  0  0  0  0  0  0  0  0  0  0
   -1.3606    3.5995   -0.9006 C   0  0  0  0  0  0  0  0  0  0  0  0
   -0.0229    3.6247   -1.3353 C   0  0  0  0  0  0  0  0  0  0  0  0
    0.7505    2.4801   -1.5074 C   0  0  0  0  0  0  0  0  0  0  0  0
    1.2692    1.5491   -0.8325 C   0  0  0  0  0  0  0  0  0  0  0  0
    1.0913    1.4613    1.0131 S   0  0  2  0  0  0  0  0  0  0  0  0
    2.2067    1.8646    2.0382 Cl  0  0  0  0  0  0  0  0  0  0  0  0
    1.9935    0.3192   -1.1664 C   0  0  0  0  0  0  0  0  0  0  0  0
    2.0817   -0.5308   -0.1772 C   0  0  0  0  0  0  0  0  0  0  0  0
    3.3833   -1.2959   -0.0910 C   0  0  0  0  0  0  0  0  0  0  0  0
    3.5823   -2.1508    0.8463 C   0  0  0  0  0  0  0  0  0  0  0  0
    2.6763   -2.5294    1.9295 C   0  0  0  0  0  0  0  0  0  0  0  0
  1  2  1  0
  2  3  2  3
  3  4  1  0
  4  5  2  3
  5  6  1  0
  6  7  1  0
  5  8  1  0
  8  9  1  0
  8 10  2  3
 10 11  1  0
 11 12  2  3
 12 13  1  0
 13 14  2  3
 14 15  1  0
 15 16  2  3
 16 17  1  0
 17 18  1  1
 16 19  1  0
 19 20  2  0
 20 21  1  0
 21 22  2  3
 22 23  1  0
 12  1  1  0
 17  9  1  0
  9 20  1  6
M  END
>  <fragInfo>  (1) 
1 2 3 4 5 8 9 10 11 12 13 14 15 16 17 18 19 20
6 7
21 22 23


>  <torsionInfo>  (1) 
5 6 0 1
20 21 0 2


>  <atomInfo>  (1) 
1  -0.0094325C 
2  -0.0801239C 
3  -0.0656081C 
4  -0.0577329C 
5  -0.0297408C 
6  0.01808939C 
7  -0.3264875NA
8  -0.0263560C 
9  0.05311598C 
10 -0.0569781C 
11 -0.0583916C 
12 -0.0442204C 
13 -0.0586900C 
14 -0.0608944C 
15 -0.0492140C 
16 0.00154253C 
17 -0.1364696S 
18 -0.0635111Cl
19 -0.0445694C 
20 -0.0300875C 
21 -0.0618338C 
22 -0.0873338C 
23 -0.0466674C 


$$$$
