
     RDKit          3D

 21 23  0  0  0  0  0  0  0  0999 V2000
   -0.6755    0.1078    0.5483 C   0  0  0  0  0  0  0  0  0  0  0  0
   -0.2626   -1.1592    0.9968 O   0  0  0  0  0  0  0  0  0  0  0  0
    0.6079   -1.9657    0.1285 C   0  0  0  0  0  0  0  0  0  0  0  0
    1.6918   -2.4134    0.6481 C   0  0  0  0  0  0  0  0  0  0  0  0
    2.2088   -2.2441    1.9836 C   0  0  0  0  0  0  0  0  0  0  0  0
    2.1769   -1.0904    2.5757 C   0  0  0  0  0  0  0  0  0  0  0  0
    1.6942    0.2038    2.1734 C   0  0  0  0  0  0  0  0  0  0  0  0
    2.5222    1.0397    1.3864 N   0  0  0  0  0  2  0  0  0  0  0  0
    1.7652    2.1544    0.7777 C   0  0  1  0  0  0  0  0  0  0  0  0
    2.6443    3.1620    0.3788 O   0  0  0  0  0  0  0  0  0  0  0  0
    1.1646    1.5397   -0.4633 C   0  0  0  0  0  0  0  0  0  0  0  0
    0.1983    0.7305   -0.5156 C   0  0  0  0  0  0  0  0  0  0  0  0
   -0.2627    0.0305   -1.7696 C   0  0  0  0  0  0  0  0  0  0  0  0
   -1.2985    0.3181   -2.5092 C   0  0  0  0  0  0  0  0  0  0  0  0
   -2.7607    0.5951   -2.0225 C   0  0  0  0  0  0  0  0  0  0  0  0
   -3.0961    1.1103   -0.8099 C   0  0  0  0  0  0  0  0  0  0  0  0
   -3.0611    0.8868    0.6154 C   0  0  2  0  0  0  0  0  0  0  0  0
   -1.7117    0.4212    1.1424 N   0  0  0  0  0  0  0  0  0  0  0  0
   -4.0122    0.0974    1.1746 O   0  0  0  0  0  0  0  0  0  0  0  0
    0.1563   -1.2773   -2.3170 C   0  0  0  0  0  0  0  0  0  0  0  0
    0.3106   -2.2471   -1.2109 O   0  0  0  0  0  0  0  0  0  0  0  0
  1  2  1  0
  2  3  1  0
  3  4  2  3
  4  5  1  0
  5  6  2  3
  6  7  1  0
  7  8  1  0
  8  9  1  0
  9 10  1  6
  9 11  1  0
 11 12  2  3
 12 13  1  0
 13 14  2  3
 14 15  1  0
 15 16  2  3
 16 17  1  0
 17 18  1  0
 17 19  1  6
 13 20  1  0
 20 21  1  0
 12  1  1  0
  1 18  2  3
 21  3  1  0
M  CHG  1   8   1
M  RAD  1   8   3
M  END
>  <fragInfo>  (1) 
1 2 3 4 5 6 7 8 9 10 11 12 13 14 15 16 17 18 19 20 21


>  <torsionInfo>  (1) 


>  <atomInfo>  (1) 
1  0.22839781C 
2  -0.4068013OA
3  0.28584256C 
4  0.01911862C 
5  -0.0532168C 
6  -0.0189028C 
7  0.20583315C 
8  0.10015295N 
9  0.31332578C 
10 -0.3335439OA
11 0.02580869C 
12 0.04854802C 
13 0.00204966C 
14 -0.0549815C 
15 -0.0613404C 
16 -0.0337665C 
17 0.16804510C 
18 -0.2152241NA
19 -0.3681371OA
20 0.11737359C 
21 -0.4602163OA


$$$$
