
     RDKit          3D

 26 28  0  0  0  0  0  0  0  0999 V2000
   -1.3878    1.5308   -0.6974 O   0  0  0  0  0  0  0  0  0  0  0  0
   -0.5666    0.6120   -0.4648 C   0  0  0  0  0  0  0  0  0  0  0  0
   -1.0376   -0.6100    0.0905 N   0  0  0  0  0  0  0  0  0  0  0  0
   -2.4287   -0.8100    0.3882 C   0  0  0  0  0  0  0  0  0  0  0  0
   -3.3253    0.2096    0.1280 C   0  0  0  0  0  0  0  0  0  0  0  0
   -4.6755    0.0759    0.3932 C   0  0  0  0  0  0  0  0  0  0  0  0
   -5.7554    1.4151    0.0360 Cl  0  0  0  0  0  0  0  0  0  0  0  0
   -5.1502   -1.1100    0.9348 C   0  0  0  0  0  0  0  0  0  0  0  0
   -4.2406   -2.1252    1.1912 C   0  0  0  0  0  0  0  0  0  0  0  0
   -4.8225   -3.6275    1.8743 Cl  0  0  0  0  0  0  0  0  0  0  0  0
   -2.9003   -1.9761    0.9215 C   0  0  0  0  0  0  0  0  0  0  0  0
    0.7998    0.8336   -0.7671 N   0  0  0  0  0  0  0  0  0  0  0  0
    1.8210   -0.1861   -0.5263 C   0  0  2  0  0  0  0  0  0  0  0  0
    1.2151   -1.2446    0.3570 C   0  0  0  0  0  0  0  0  0  0  0  0
    1.0526   -2.5710   -0.3348 C   0  0  0  0  0  0  0  0  0  0  0  0
    2.5732   -3.0714   -1.1420 S   0  0  0  0  0  0  0  0  0  0  0  0
    4.0339   -2.5736   -0.2726 C   0  0  0  0  0  0  0  0  0  0  0  0
    4.3291   -1.5664    0.5461 C   0  0  0  0  0  0  0  0  0  0  0  0
    3.6795   -0.3867    1.1531 C   0  0  0  0  0  0  0  0  0  0  0  0
    2.9478    0.4782    0.1958 C   0  0  1  0  0  0  0  0  0  0  0  0
    3.7880    1.3400   -0.6404 C   0  0  0  0  0  0  0  0  0  0  0  0
    3.6916    2.6604   -0.4676 C   0  0  0  0  0  0  0  0  0  0  0  0
    2.7798    3.2738    0.5237 C   0  0  0  0  0  0  0  0  0  0  0  0
    1.7369    4.0711   -0.0829 N   0  0  0  0  0  0  0  0  0  0  0  0
    0.6301    3.2642   -0.5382 C   0  0  0  0  0  0  0  0  0  0  0  0
    1.2122    2.0940   -1.3283 C   0  0  0  0  0  0  0  0  0  0  0  0
  1  2  2  0
  2  3  1  0
  3  4  1  0
  4  5  2  0
  5  6  1  0
  6  7  1  0
  6  8  2  0
  8  9  1  0
  9 10  1  0
  9 11  2  0
  2 12  1  0
 12 13  1  0
 13 14  1  1
 14 15  1  0
 15 16  1  0
 16 17  1  0
 17 18  2  3
 18 19  1  0
 20 19  1  6
 20 21  1  0
 21 22  2  3
 22 23  1  0
 23 24  1  0
 24 25  1  0
 25 26  1  0
 11  4  1  0
 26 12  1  0
 20 13  1  0
M  END
>  <fragInfo>  (1) 
12 13 14 15 16 17 18 19 20 21 22 23 24 25 26
1 2 3
4 5 6 7 8 9 10 11


>  <torsionInfo>  (1) 
2 12 1 0
3 4 1 2


>  <atomInfo>  (1) 
1  -0.2482577OA
2  0.32165820C 
3  -0.3077258N 
4  0.04533850A 
5  -0.0196515A 
6  0.04409878A 
7  -0.0842080Cl
8  -0.0246496A 
9  0.04409878A 
10 -0.0842080Cl
11 -0.0196515A 
12 -0.3196436N 
13 0.04083084C 
14 -0.0224468C 
15 -0.0006273C 
16 -0.1343885SA
17 -0.0331920C 
18 -0.0775484C 
19 -0.0259478C 
20 0.00086615C 
21 -0.0817895C 
22 -0.0743727C 
23 0.01352539C 
24 -0.3115181NA
25 0.01324472C 
26 0.03511007C 


$$$$
