
     RDKit          3D

 74 75  0  0  0  0  0  0  0  0999 V2000
  -11.9266    4.1786    3.0271 C   0  0  0  0  0  0  0  0  0  0  0  0
  -12.0904    2.7148    3.4000 C   0  0  0  0  0  0  0  0  0  0  0  0
  -11.8012    2.4865    4.8536 C   0  0  0  0  0  0  0  0  0  0  0  0
  -11.2267    1.8322    2.5111 C   0  0  0  0  0  0  0  0  0  0  0  0
   -9.7606    2.1742    2.6362 C   0  0  0  0  0  0  0  0  0  0  0  0
   -9.3703    1.9631    4.0924 C   0  0  0  0  0  0  0  0  0  0  0  0
   -7.9264    2.2765    4.3286 C   0  0  1  0  0  0  0  0  0  0  0  0
   -7.6400    2.0652    5.8385 C   0  0  0  0  0  0  0  0  0  0  0  0
   -7.0519    1.2963    3.5645 C   0  0  0  0  0  3  0  0  0  0  0  0
   -7.1952   -0.0647    4.1228 C   0  0  0  0  0  0  0  0  0  0  0  0
   -8.5019   -0.7512    3.9836 C   0  0  0  0  0  0  0  0  0  0  0  0
   -8.9056   -0.9995    2.5507 C   0  0  2  0  0  0  0  0  0  0  0  0
  -10.2648   -1.7069    2.5599 C   0  0  0  0  0  0  0  0  0  0  0  0
   -7.9593   -1.9898    1.8762 C   0  0  0  0  0  0  0  0  0  0  0  0
   -8.4492   -2.1658    0.4563 C   0  0  0  0  0  0  0  0  0  0  0  0
   -7.6128   -3.1241   -0.3308 C   0  0  2  0  0  0  0  0  0  0  0  0
   -7.6045   -4.4404    0.2705 N   0  0  0  0  0  0  0  0  0  0  0  0
   -6.1765   -2.6218   -0.3783 C   0  0  2  0  0  0  0  0  0  0  0  0
   -6.2447   -1.2736   -1.0402 C   0  0  0  0  0  0  0  0  0  0  0  0
   -5.8885   -0.2071   -0.0784 C   0  0  0  0  0  0  0  0  0  0  0  0
   -6.9044    0.8856    0.0167 C   0  0  0  0  0  0  0  0  0  0  0  0
   -7.3780    1.4065   -1.2973 C   0  0  0  0  0  0  0  0  0  0  0  0
   -8.7082    0.7915   -1.7150 C   0  0  0  0  0  0  0  0  0  0  0  0
   -7.6055    2.9009   -1.1721 C   0  0  0  0  0  0  0  0  0  0  0  0
   -6.4428    1.1996   -2.3836 N   0  0  0  0  0  0  0  0  0  0  0  0
   -6.7114    0.0199   -3.1386 C   0  0  0  0  0  0  0  0  0  0  0  0
   -6.5921   -1.2247   -2.3222 C   0  0  0  0  0  0  0  0  0  0  0  0
   -6.8988   -2.4625   -3.0585 C   0  0  0  0  0  0  0  0  0  0  0  0
   -6.1318   -3.6680   -2.6134 C   0  0  0  0  0  3  0  0  0  0  0  0
   -5.3722   -3.4949   -1.3398 C   0  0  2  0  0  0  0  0  0  0  0  0
   -5.0726   -5.0569   -0.5809 Cl  0  0  0  0  0  0  0  0  0  0  0  0
   -4.0777   -2.7640   -1.6406 C   0  0  0  0  0  0  0  0  0  0  0  0
   -3.2494   -3.5804   -2.5862 C   0  0  0  0  0  0  0  0  0  0  0  0
   -2.8090   -4.9471   -2.1974 C   0  0  0  0  0  0  0  0  0  0  0  0
   -2.9187   -3.0957   -3.7388 N   0  0  0  0  0  4  0  0  0  0  0  0
   -2.1300   -3.8763   -4.6376 C   0  0  0  0  0  0  0  0  0  0  0  0
   -3.3601   -1.7732   -4.0854 C   0  0  0  0  0  0  0  0  0  0  0  0
   -2.1627   -0.8648   -4.1508 C   0  0  0  0  0  0  0  0  0  0  0  0
   -2.5949    0.5306   -4.5039 C   0  0  0  0  0  0  0  0  0  0  0  0
   -1.3772    1.4169   -4.5670 C   0  0  0  0  0  0  0  0  0  0  0  0
   -0.6970    1.3955   -3.1989 C   0  0  0  0  0  0  0  0  0  0  0  0
   -0.3173   -0.0330   -2.9185 C   0  0  0  0  0  0  0  0  0  0  0  0
    0.3687   -0.1679   -1.5901 C   0  0  0  0  0  0  0  0  0  0  0  0
    1.6260    0.6321   -1.5021 C   0  0  0  0  0  0  0  0  0  0  0  0
    1.3626    2.0940   -1.6953 C   0  0  0  0  0  3  0  0  0  0  0  0
    2.6913    2.8384   -1.6009 C   0  0  2  0  0  0  0  0  0  0  0  0
    3.6393    2.3597   -2.6869 C   0  0  0  0  0  0  0  0  0  0  0  0
    3.3279    2.6054   -0.2405 C   0  0  0  0  0  0  0  0  0  0  0  0
    3.5867    1.1767   -0.0026 C   0  0  0  0  0  0  0  0  0  0  0  0
    4.5767    0.5037   -0.3961 N   0  0  0  0  0  4  0  0  0  0  0  0
    4.5986   -0.9016   -0.0270 C   0  0  0  0  0  0  0  0  0  0  0  0
    5.6646    0.9873   -1.1656 C   0  0  0  0  0  0  0  0  0  0  0  0
    6.9810    1.0049   -0.4030 C   0  0  2  0  0  0  0  0  0  0  0  0
    8.0665    1.5356   -1.3089 C   0  0  0  0  0  3  0  0  0  0  0  0
    7.7075    2.9400   -1.7467 C   0  0  0  0  0  0  0  0  0  0  0  0
    7.2980   -0.4694   -0.1171 C   0  0  0  0  0  0  0  0  0  0  0  0
    8.5980   -0.5682    0.6406 C   0  0  0  0  0  0  0  0  0  0  0  0
    8.4818    0.1820    1.9436 C   0  0  1  0  0  0  0  0  0  0  0  0
    8.1856    1.5802    1.6549 N   0  0  0  0  0  0  0  0  0  0  0  0
    7.4122   -0.3810    2.8397 C   0  0  0  0  0  0  0  0  0  0  0  0
    9.8273    0.0638    2.6405 C   0  0  0  0  0  0  0  0  0  0  0  0
   10.1663   -1.3028    2.8956 N   0  0  0  0  0  0  0  0  0  0  0  0
   11.4016   -1.4631    3.5192 C   0  0  0  0  0  0  0  0  0  0  0  0
   12.6127   -1.2281    2.7914 C   0  0  0  0  0  0  0  0  0  0  0  0
   12.9253    0.0797    2.1615 C   0  0  1  0  0  0  0  0  0  0  0  0
   14.3294   -0.0317    1.5178 C   0  0  0  0  0  0  0  0  0  0  0  0
   14.3561   -1.1139    0.4763 C   0  0  0  0  0  3  0  0  0  0  0  0
   14.0065   -2.4413    1.1127 C   0  0  0  0  0  0  0  0  0  0  0  0
   11.9466    0.2770    0.9815 C   0  0  0  0  0  0  0  0  0  0  0  0
   12.2676    1.8993    0.1264 Si  0  0  0  0  0  3  0  0  0  0  0  0
   12.7742    3.3713    1.5198 Cl  0  0  0  0  0  0  0  0  0  0  0  0
   13.6094    1.7087   -1.1281 C   0  0  0  0  0  3  0  0  0  0  0  0
   14.6350    2.8074   -1.0464 C   0  0  0  0  0  3  0  0  0  0  0  0
   14.0780    4.0736   -0.4404 C   0  0  0  0  0  0  0  0  0  0  0  0
  1  2  1  0
  2  3  1  0
  2  4  1  0
  4  5  1  0
  5  6  1  0
  6  7  1  0
  7  8  1  1
  7  9  1  0
  9 10  1  0
 10 11  1  0
 11 12  1  0
 12 13  1  1
 12 14  1  0
 14 15  1  0
 15 16  1  0
 16 17  1  1
 16 18  1  0
 18 19  1  6
 19 20  1  0
 20 21  1  0
 21 22  1  0
 22 23  1  0
 22 24  1  0
 22 25  1  0
 25 26  1  0
 26 27  1  0
 27 28  1  0
 28 29  1  0
 29 30  1  0
 30 31  1  1
 30 32  1  0
 32 33  1  0
 33 34  1  0
 33 35  2  3
 35 36  1  0
 35 37  1  0
 37 38  1  0
 38 39  1  0
 39 40  1  0
 40 41  1  0
 41 42  1  0
 42 43  1  0
 43 44  1  0
 44 45  1  0
 45 46  1  0
 46 47  1  6
 46 48  1  0
 48 49  1  0
 49 50  2  3
 50 51  1  0
 50 52  1  0
 53 52  1  6
 53 54  1  0
 54 55  1  0
 53 56  1  0
 56 57  1  0
 57 58  1  0
 58 59  1  0
 58 60  1  1
 58 61  1  0
 61 62  1  0
 62 63  1  0
 63 64  1  0
 65 64  1  6
 65 66  1  0
 66 67  1  0
 67 68  1  0
 65 69  1  0
 69 70  1  0
 70 71  1  0
 70 72  1  0
 72 73  1  0
 73 74  1  0
 30 18  1  0
 19 27  2  0
M  RAD  8   9   2  29   2  45   2  54   2  67   2  70   2  72   2  73   2
M  CHG  2  35   1  50   1
M  END
>  <fragInfo>  (1) 
18 19 20 21 22 23 24 25 26 27 28 29 30 31
1 2 3
4
5
6
7 8
9
10
11
12 13
14
15
16 17
32
33 34 35 36
37
38
39
40
41
42
43
44
45
46 47
48
49 50 51
52
53
54 55
56
57
58 59 60
61
62
63
64
65
66
67 68
69
70 71
72
73 74


>  <torsionInfo>  (1) 
16 18 12 0
30 32 0 13
2 4 1 2
4 5 2 3
5 6 3 4
6 7 4 5
7 9 5 6
9 10 6 7
10 11 7 8
11 12 8 9
12 14 9 10
14 15 10 11
15 16 11 12
32 33 13 14
35 37 14 15
37 38 15 16
38 39 16 17
39 40 17 18
40 41 18 19
41 42 19 20
42 43 20 21
43 44 21 22
44 45 22 23
45 46 23 24
46 48 24 25
48 49 25 26
50 52 26 27
52 53 27 28
53 54 28 29
53 56 28 30
56 57 30 31
57 58 31 32
58 61 32 33
61 62 33 34
62 63 34 35
63 64 35 36
64 65 36 37
65 66 37 38
65 69 37 40
66 67 38 39
69 70 40 41
70 72 41 42
72 73 42 43


>  <atomInfo>  (1) 
1  -0.0627736C 
2  -0.0471324C 
3  -0.0627736C 
4  -0.0509643C 
5  -0.0527983C 
6  -0.0504266C 
7  -0.0411603C 
8  -0.0622342C 
9  -0.0357404C 
10 -0.0496646C 
11 -0.0504260C 
12 -0.0442117C 
13 -0.0625085C 
14 -0.0492145C 
15 -0.0370841C 
16 0.01219703C 
17 -0.3270765NA
18 0.01529864C 
19 -0.0632175C 
20 -0.0295750C 
21 -0.0316330C 
22 0.01307955C 
23 -0.0470992C 
24 -0.0470992C 
25 -0.3080498NA
26 0.01720101C 
27 -0.0564398C 
28 -0.0255663C 
29 -0.0122446C 
30 0.06550711C 
31 -0.1176600Cl
32 0.04746653C 
33 0.15024295C 
34 0.01604488C 
35 -0.2398616N 
36 0.13230295C 
37 0.14203578C 
38 0.00610403C 
39 -0.0472975C 
40 -0.0530675C 
41 -0.0533016C 
42 -0.0532954C 
43 -0.0530215C 
44 -0.0499031C 
45 -0.0352162C 
46 -0.0319585C 
47 -0.0617128C 
48 0.02733311C 
49 0.13916789C 
50 -0.2419304N 
51 0.13206066C 
52 0.14483273C 
53 0.02054830C 
54 -0.0323321C 
55 -0.0617338C 
56 -0.0423666C 
57 -0.0335982C 
58 0.02518582C 
59 -0.3242303NA
60 -0.0458222C 
61 0.01295090C 
62 -0.3149065NA
63 -0.0045604C 
64 -0.0380401C 
65 -0.0413802C 
66 -0.0477876C 
67 -0.0414345C 
68 -0.0622446C 
69 -0.0415618C 
70 0.16879294Si
71 -0.1686806Cl
72 -0.0283010C 
73 -0.0402171C 
74 -0.0622279C 


$$$$
