
     RDKit          3D

 20 21  0  0  0  0  0  0  0  0999 V2000
   -3.7981   -0.4375    0.5896 C   0  0  2  0  0  0  0  0  0  0  0  0
   -5.0931   -0.1743    0.1817 O   0  0  0  0  0  0  0  0  0  0  0  0
   -5.4433    0.9618   -0.5096 C   0  0  0  0  0  0  0  0  0  0  0  0
   -4.5375    1.8499   -0.8092 C   0  0  0  0  0  0  0  0  0  0  0  0
   -3.1417    1.6455   -0.4128 C   0  0  0  0  0  0  0  0  0  0  0  0
   -2.7987    0.5582    0.2504 C   0  0  0  0  0  0  0  0  0  0  0  0
   -1.3508    0.5574    0.5463 C   0  0  0  0  0  0  0  0  0  0  0  0
   -0.6234   -0.3879   -0.4014 C   0  0  2  0  0  0  0  0  0  0  0  0
   -1.6807   -1.3643   -0.9300 C   0  0  0  0  0  0  0  0  0  0  0  0
   -2.1163   -2.1146    0.1364 O   0  0  0  0  0  0  0  0  0  0  0  0
   -3.3734   -1.8430    0.5730 C   0  0  0  0  0  0  0  0  0  0  0  0
    0.3428   -1.1941    0.4725 C   0  0  0  0  0  3  0  0  0  0  0  0
    1.2792   -0.1783    1.1242 C   0  0  0  0  0  0  0  0  0  0  0  0
    2.0030    0.5587    0.0051 C   0  0  0  0  0  0  0  0  0  0  0  0
    2.7669   -0.4957   -0.7782 C   0  0  0  0  0  3  0  0  0  0  0  0
    3.7391   -1.1578    0.2002 C   0  0  0  0  0  0  0  0  0  0  0  0
    4.6454   -0.0533    0.7106 C   0  0  0  0  0  0  0  0  0  0  0  0
    5.3641    0.5376   -0.5035 C   0  0  0  0  0  3  0  0  0  0  0  0
    6.2952    1.6547   -0.0784 C   0  0  0  0  0  0  0  0  0  0  0  0
    7.5214    1.0771    0.1884 F   0  0  0  0  0  0  0  0  0  0  0  0
  1  2  1  0
  2  3  1  0
  3  4  2  0
  4  5  1  0
  5  6  2  0
  6  7  1  0
  7  8  1  0
  8  9  1  0
  9 10  1  0
 10 11  1  0
  8 12  1  1
 12 13  1  0
 13 14  1  0
 14 15  1  0
 15 16  1  0
 16 17  1  0
 17 18  1  0
 18 19  1  0
 19 20  1  0
  1 11  1  6
  6  1  1  0
M  RAD  3  12   2  15   2  18   2
M  END
>  <fragInfo>  (1) 
1 2 3 4 5 6 7 8 9 10 11
12
13
14
15
16
17
18
19 20


>  <torsionInfo>  (1) 
8 12 0 1
12 13 1 2
13 14 2 3
14 15 3 4
15 16 4 5
16 17 5 6
17 18 6 7
18 19 7 8


>  <atomInfo>  (1) 
1  0.14238242C 
2  -0.4912499OA
3  0.08391371C 
4  -0.0274045C 
5  -0.0562465C 
6  -0.0272594C 
7  -0.0226576C 
8  -0.0108513C 
9  0.05017051C 
10 -0.3769311OA
11 0.08751347C 
12 -0.0328649C 
13 -0.0495356C 
14 -0.0498968C 
15 -0.0385618C 
16 -0.0498136C 
17 -0.0473170C 
18 -0.0074819C 
19 0.09257045C 
20 -0.2507899F 


$$$$
