
     RDKit          3D

 25 26  0  0  0  0  0  0  0  0999 V2000
   -5.4370   -2.3931   -4.2463 C   0  0  0  0  0  0  0  0  0  0  0  0
   -4.9934   -0.9868   -3.9126 C   0  0  0  0  0  0  0  0  0  0  0  0
   -5.4150   -0.0224   -5.0211 C   0  0  0  0  0  0  0  0  0  0  0  0
   -5.6644   -0.5341   -2.6323 C   0  0  0  0  0  0  0  0  0  0  0  0
   -5.2633   -1.4819   -1.5115 C   0  0  0  0  0  0  0  0  0  0  0  0
   -3.7708   -1.4904   -1.3034 C   0  0  0  0  0  0  0  0  0  0  0  0
   -3.2224   -0.1445   -0.9407 C   0  0  1  0  0  0  0  0  0  0  0  0
   -3.8503    0.3429    0.3380 C   0  0  0  0  0  0  0  0  0  0  0  0
   -1.7353   -0.2329   -0.7829 C   0  0  0  0  0  3  0  0  0  0  0  0
   -1.3647   -1.2323    0.3208 C   0  0  0  0  0  0  0  0  0  0  0  0
   -1.9865   -0.7399    1.5964 C   0  0  0  0  0  0  0  0  0  0  0  0
   -1.4660    0.6087    1.9573 C   0  0  0  0  0  3  0  0  0  0  0  0
    0.0482    0.4753    2.2104 C   0  0  1  0  0  0  0  0  0  0  0  0
    0.5861   -0.0212    0.8726 C   0  0  0  0  0  2  0  0  0  0  0  0
    0.6356    1.7817    2.5362 C   0  0  0  0  0  0  0  0  0  0  0  0
    2.0166    1.9023    2.8472 C   0  0  0  0  0  0  0  0  0  0  0  0
    3.1271    1.5315    1.9620 C   0  0  1  0  0  0  0  0  0  0  0  0
    4.4795    1.8550    2.6583 C   0  0  0  0  0  3  0  0  0  0  0  0
    5.4754    1.7793    1.5298 C   0  0  0  0  0  0  0  0  0  0  0  0
    5.4483    0.7386    0.7432 C   0  0  0  0  0  0  0  0  0  0  0  0
    6.3521    0.6377   -0.3063 O   0  0  0  0  0  0  0  0  0  0  0  0
    4.4761   -0.3329    0.9474 C   0  0  1  0  0  0  0  0  0  0  0  0
    4.7777   -1.2753    2.0932 C   0  0  0  0  0  0  0  0  0  0  0  0
    3.2077    0.0496    1.6196 C   0  0  1  0  0  0  0  0  0  0  0  0
    3.5385   -0.8146    2.8174 C   0  0  0  0  0  3  0  0  0  0  0  0
  1  2  1  0
  2  3  1  0
  2  4  1  0
  4  5  1  0
  5  6  1  0
  6  7  1  0
  7  8  1  1
  7  9  1  0
  9 10  1  0
 10 11  1  0
 11 12  1  0
 12 13  1  0
 13 14  1  6
 13 15  1  0
 15 16  1  0
 17 16  1  1
 17 18  1  0
 18 19  1  0
 19 20  2  0
 20 21  1  0
 20 22  1  0
 22 23  1  1
 17 24  1  0
 24 25  1  1
 24 22  1  0
 25 23  1  0
M  RAD  5   9   2  12   2  14   3  18   2  25   2
M  END
>  <fragInfo>  (1) 
17 18 19 20 21 22 23 24 25
1 2 3
4
5
6
7 8
9
10
11
12
13 14
15
16


>  <torsionInfo>  (1) 
16 17 12 0
2 4 1 2
4 5 2 3
5 6 3 4
6 7 4 5
7 9 5 6
9 10 6 7
10 11 7 8
11 12 8 9
12 13 9 10
13 15 10 11
15 16 11 12


>  <atomInfo>  (1) 
1  -0.0627736C 
2  -0.0471324C 
3  -0.0627736C 
4  -0.0509643C 
5  -0.0527983C 
6  -0.0504266C 
7  -0.0411603C 
8  -0.0622342C 
9  -0.0357399C 
10 -0.0496337C 
11 -0.0496129C 
12 -0.0351705C 
13 -0.0348853C 
14 -0.0315047C 
15 -0.0495902C 
16 -0.0492771C 
17 -0.0305751C 
18 -0.0099089C 
19 -0.0425601C 
20 0.09194118C 
21 -0.5123407OA
22 0.01954999C 
23 -0.0396608C 
24 -0.0249630C 
25 -0.0337271C 


$$$$
