
     RDKit          3D

 31 31  0  0  0  0  0  0  0  0999 V2000
    3.4941   -0.0257    0.6867 C   0  0  0  0  0  0  0  0  0  0  0  0
    4.3884    1.1513    0.9214 C   0  0  1  0  0  0  0  0  0  0  0  0
    5.6513    1.1137    0.0900 C   0  0  0  0  0  0  0  0  0  0  0  0
    3.6939    2.4766    0.7906 C   0  0  0  0  0  0  0  0  0  0  0  0
    2.4531    2.4136   -0.0641 C   0  0  0  0  0  0  0  0  0  0  0  0
    2.2500    3.7774   -0.6865 C   0  0  0  0  0  0  0  0  0  0  0  0
    1.0569    4.5028   -0.0707 C   0  0  1  0  0  0  0  0  0  0  0  0
    1.5568    5.9043    0.2737 C   0  0  0  0  0  0  0  0  0  0  0  0
    0.0372    4.6693   -1.1732 C   0  0  0  0  0  3  0  0  0  0  0  0
   -1.3011    4.0909   -0.8330 C   0  0  0  0  0  3  0  0  0  0  0  0
   -1.2630    3.1068    0.3023 C   0  0  0  0  0  0  0  0  0  0  0  0
   -2.5350    3.2877    1.1040 C   0  0  0  0  0  3  0  0  0  0  0  0
   -3.6925    2.5488    0.5202 C   0  0  1  0  0  0  0  0  0  0  0  0
   -4.7866    3.3883    0.1330 N   0  0  0  0  0  0  0  0  0  0  0  0
   -3.3182    1.5157   -0.4926 C   0  0  0  0  0  0  0  0  0  0  0  0
   -3.8905    0.1888   -0.0493 C   0  0  1  0  0  0  0  0  0  0  0  0
   -5.2403   -0.0816   -0.6731 C   0  0  0  0  0  0  0  0  0  0  0  0
   -2.9269   -0.9526   -0.2309 C   0  0  0  0  0  3  0  0  0  0  0  0
   -3.4134   -1.9468   -1.2619 C   0  0  0  0  0  0  0  0  0  0  0  0
   -3.4052   -3.3592   -0.7686 C   0  0  2  0  0  0  0  0  0  0  0  0
   -3.8979   -3.5130    0.5122 O   0  0  0  0  0  0  0  0  0  0  0  0
   -2.1192   -4.0840   -1.0191 C   0  0  0  0  0  3  0  0  0  0  0  0
   -1.3054   -4.2253    0.2279 C   0  0  0  0  0  0  0  0  0  0  0  0
   -1.9862   -4.3599    1.5499 C   0  0  0  0  0  0  0  0  0  0  0  0
    0.0124   -4.2372    0.2184 C   0  0  0  0  0  0  0  0  0  0  0  0
    0.8589   -4.1172   -0.9814 C   0  0  0  0  0  0  0  0  0  0  0  0
    2.4955   -4.8188   -0.5742 S   0  0  0  0  0  0  0  0  0  0  0  0
    3.7601   -3.5223   -0.6288 C   0  0  0  0  0  0  0  0  0  0  0  0
    3.5966   -2.5191    0.4776 C   0  0  0  0  0  0  0  0  0  0  0  0
    4.2063   -1.1998    0.0676 C   0  0  2  0  0  0  0  0  0  0  0  0
    5.5700   -1.1734    0.2583 O   0  0  0  0  0  0  0  0  0  0  0  0
  1  2  1  0
  2  3  1  6
  2  4  1  0
  4  5  1  0
  5  6  1  0
  6  7  1  0
  7  8  1  6
  7  9  1  0
  9 10  1  0
 10 11  1  0
 11 12  1  0
 12 13  1  0
 13 14  1  6
 13 15  1  0
 15 16  1  0
 16 17  1  6
 16 18  1  0
 18 19  1  0
 19 20  1  0
 20 21  1  1
 20 22  1  0
 22 23  1  0
 23 24  1  0
 23 25  2  3
 25 26  1  0
 26 27  1  0
 27 28  1  0
 28 29  1  0
 29 30  1  0
 30 31  1  1
 30  1  1  0
M  RAD  5   9   2  10   2  12   2  18   2  22   2
M  END
>  <fragInfo>  (1) 
1 2 3 4 5 6 7 8 9 10 11 12 13 14 15 16 17 18 19 20 21 22 23 24 25 26 27 28 29 30 31


>  <torsionInfo>  (1) 


>  <atomInfo>  (1) 
1  -0.0243919C 
2  -0.0418243C 
3  -0.0624144C 
4  -0.0506058C 
5  -0.0527864C 
6  -0.0504158C 
7  -0.0408749C 
8  -0.0622236C 
9  -0.0323472C 
10 -0.0345739C 
11 -0.0452270C 
12 -0.0215708C 
13 0.00730883C 
14 -0.3274192NA
15 -0.0348415C 
16 -0.0395814C 
17 -0.0621745C 
18 -0.0331188C 
19 -0.0230097C 
20 0.06144988C 
21 -0.3924703OA
22 0.01455398C 
23 -0.0701102C 
24 -0.0435034C 
25 -0.0752713C 
26 0.01155064C 
27 -0.1577432SA
28 -0.0039830C 
29 -0.0178596C 
30 0.05502459C 
31 -0.3930891OA


$$$$
