
     RDKit          3D

 23 25  0  0  0  0  0  0  0  0999 V2000
   -1.4515   -1.1935   -1.6189 O   0  0  0  0  0  0  0  0  0  0  0  0
   -0.6495   -1.1237   -0.6541 C   0  0  0  0  0  0  0  0  0  0  0  0
   -1.1038   -1.5502    0.6183 N   0  0  0  0  0  0  0  0  0  0  0  0
   -2.4736   -2.0461    0.7511 C   0  0  0  0  0  0  0  0  0  0  0  0
   -3.4312   -0.8812    0.7506 C   0  0  0  0  0  0  0  0  0  0  0  0
   -2.9065    0.3828    0.7251 C   0  0  0  0  0  0  0  0  0  0  0  0
   -3.7145    1.4847    0.7221 C   0  0  0  0  0  0  0  0  0  0  0  0
   -5.0871    1.3106    0.7454 C   0  0  0  0  0  0  0  0  0  0  0  0
   -6.0713    2.7620    0.7426 Cl  0  0  0  0  0  0  0  0  0  0  0  0
   -5.6051    0.0375    0.7701 C   0  0  0  0  0  0  0  0  0  0  0  0
   -4.7916   -1.0938    0.7734 C   0  0  0  0  0  0  0  0  0  0  0  0
    0.7245   -0.6120   -0.8413 C   0  0  0  0  0  0  0  0  0  0  0  0
    1.5576   -0.5390    0.1800 C   0  0  0  0  0  0  0  0  0  0  0  0
    2.9011   -0.0445    0.0259 N   0  0  0  0  0  0  0  0  0  0  0  0
    3.7866    0.0244    1.1570 C   0  0  0  0  0  0  0  0  0  0  0  0
    5.1207    0.5413    0.8840 C   0  0  0  0  0  0  0  0  0  0  0  0
    6.3277    0.6845    2.1871 Cl  0  0  0  0  0  0  0  0  0  0  0  0
    5.4375    0.9069   -0.3424 C   0  0  0  0  0  0  0  0  0  0  0  0
    4.5078    0.8166   -1.4430 C   0  0  0  0  0  0  0  0  0  0  0  0
    3.2816    0.3590   -1.2769 C   0  0  0  0  0  0  0  0  0  0  0  0
    2.3459    0.2757   -2.4191 C   0  0  0  0  0  0  0  0  0  0  0  0
    1.1313   -0.1934   -2.1753 C   0  0  0  0  0  0  0  0  0  0  0  0
    0.1636   -0.3087   -3.2279 N   0  0  0  0  0  0  0  0  0  0  0  0
  1  2  2  0
  2  3  1  0
  3  4  1  0
  4  5  1  0
  5  6  2  0
  6  7  1  0
  7  8  2  0
  8  9  1  0
  8 10  1  0
 10 11  2  0
  2 12  1  0
 12 13  2  0
 13 14  1  0
 14 15  1  0
 15 16  1  0
 16 17  1  0
 16 18  2  0
 18 19  1  0
 19 20  2  0
 20 21  1  0
 21 22  2  0
 22 23  1  0
 11  5  1  0
 22 12  1  0
 20 14  1  0
M  END
>  <fragInfo>  (1) 
12 13 14 15 16 17 18 19 20 21 22 23
1 2 3
4
5 6 7 8 9 10 11


>  <torsionInfo>  (1) 
2 12 1 0
3 4 1 2
4 5 2 3


>  <atomInfo>  (1) 
1  -0.2691601OA
2  0.25463497C 
3  -0.3478470N 
4  0.04306200C 
5  -0.0286851A 
6  -0.0557788A 
7  -0.0431874A 
8  0.04057059A 
9  -0.0843441Cl
10 -0.0431874A 
11 -0.0557788A 
12 0.07853989C 
13 0.01934486C 
14 -0.3417156N 
15 0.05827805C 
16 0.03789674C 
17 -0.0871617Cl
18 -0.0437474C 
19 -0.0371138C 
20 0.04305999C 
21 -0.0144687C 
22 0.04788398C 
23 -0.3979733N 


$$$$
