
     RDKit          3D

 26 27  0  0  0  0  0  0  0  0999 V2000
    6.3307    0.0816   -0.9081 C   0  0  0  0  0  0  0  0  0  0  0  0
    5.0462   -0.3954   -0.3199 C   0  0  0  0  0  0  0  0  0  0  0  0
    4.1321   -0.6794   -1.1504 O   0  0  0  0  0  0  0  0  0  0  0  0
    4.8482   -0.5251    1.0400 O   0  0  0  0  0  0  0  0  0  0  0  0
    3.6271   -0.9767    1.5603 C   0  0  0  0  0  3  0  0  0  0  0  0
    3.6635   -2.4469    1.6830 C   0  0  0  0  0  0  0  0  0  0  0  0
    3.6432   -3.1970    0.7041 O   0  0  0  0  0  0  0  0  0  0  0  0
    2.4308   -0.5555    0.7704 C   0  0  0  0  0  0  0  0  0  0  0  0
    2.3861    0.9621    0.6392 C   0  0  0  0  0  0  0  0  0  0  0  0
    1.1837    1.4049   -0.1560 C   0  0  0  0  0  3  0  0  0  0  0  0
   -0.0552    0.9247    0.5699 C   0  0  2  0  0  0  0  0  0  0  0  0
    0.0164   -0.5804    0.6545 C   0  0  0  0  0  0  0  0  0  0  0  0
   -0.7981   -1.2768   -0.3873 C   0  0  2  0  0  0  0  0  0  0  0  0
   -0.3593   -0.9412   -1.8004 C   0  0  0  0  0  0  0  0  0  0  0  0
   -2.2334   -0.8903   -0.2436 C   0  0  0  0  0  0  0  0  0  0  0  0
   -3.2348   -1.6809   -0.5370 C   0  0  0  0  0  0  0  0  0  0  0  0
   -4.5810   -1.1966   -0.3570 C   0  0  0  0  0  0  0  0  0  0  0  0
   -5.5261   -2.0217   -0.3266 O   0  0  0  0  0  0  0  0  0  0  0  0
   -4.9245    0.2408   -0.2031 C   0  0  0  0  0  0  0  0  0  0  0  0
   -3.7005    1.1208   -0.3145 C   0  0  0  0  0  0  0  0  0  0  0  0
   -2.4799    0.4996    0.2724 C   0  0  1  0  0  0  0  0  0  0  0  0
   -2.4792    0.4457    1.7633 C   0  0  0  0  0  0  0  0  0  0  0  0
   -1.2709    1.3184   -0.1998 C   0  0  1  0  0  0  0  0  0  0  0  0
   -1.6160    2.7720   -0.1110 C   0  0  0  0  0  0  0  0  0  0  0  0
   -1.8807    3.2151    1.2837 C   0  0  0  0  0  0  0  0  0  0  0  0
   -2.1685    4.3782    1.4545 O   0  0  0  0  0  0  0  0  0  0  0  0
  1  2  1  0
  2  3  2  0
  2  4  1  0
  4  5  1  0
  5  6  1  0
  6  7  2  0
  5  8  1  0
  8  9  1  0
  9 10  1  0
 11 10  1  6
 11 12  1  0
 12 13  1  0
 13 14  1  6
 13 15  1  0
 15 16  2  0
 16 17  1  0
 17 18  2  0
 17 19  1  0
 19 20  1  0
 20 21  1  0
 21 22  1  1
 21 23  1  0
 23 24  1  1
 24 25  1  0
 25 26  2  0
 23 11  1  0
 21 15  1  0
M  RAD  2   5   2  10   2
M  END
>  <fragInfo>  (1) 
11 12 13 14 15 16 17 18 19 20 21 22 23
1 2 3
4
5
6 7
8
9
10
24
25 26


>  <torsionInfo>  (1) 
10 11 7 0
23 24 0 8
2 4 1 2
4 5 2 3
5 6 3 4
5 8 3 5
8 9 5 6
9 10 6 7
24 25 8 9


>  <atomInfo>  (1) 
1  0.03398635C 
2  0.30327671C 
3  -0.2525927OA
4  -0.4466784OA
5  0.21280026C 
6  0.16790417C 
7  -0.2986873OA
8  -0.0010237C 
9  -0.0454608C 
10 -0.0349680C 
11 -0.0336619C 
12 -0.0434853C 
13 -0.0218854C 
14 -0.0586962C 
15 -0.0576187C 
16 -0.0189595C 
17 0.15520763C 
18 -0.2948657OA
19 0.01101939C 
20 -0.0365278C 
21 -0.0069879C 
22 -0.0555437C 
23 -0.0224764C 
24 0.00695282C 
25 0.11981019C 
26 -0.3033907OA


$$$$
