
     RDKit          3D

 11 11  0  0  0  0  0  0  0  0999 V2000
    2.3708   -0.4434   -0.8845 O   0  0  0  0  0  0  0  0  0  0  0  0
    2.2435    0.4884    0.1227 C   0  0  0  0  0  0  0  0  0  0  0  0
    0.7926    0.7766    0.4767 C   0  0  1  0  0  0  0  0  0  0  0  0
    0.1677    1.2847   -0.7389 N   0  0  0  0  0  0  0  0  0  0  0  0
   -1.2325    1.4765   -0.4809 C   0  0  0  0  0  0  0  0  0  0  0  0
   -1.9404    0.1651   -0.1943 C   0  0  2  0  0  0  0  0  0  0  0  0
   -2.4701    0.2810    1.1032 O   0  0  0  0  0  0  0  0  0  0  0  0
   -0.8679   -0.9143   -0.1174 C   0  0  1  0  0  0  0  0  0  0  0  0
   -0.2334   -1.0654   -1.3400 O   0  0  0  0  0  0  0  0  0  0  0  0
    0.1259   -0.5126    0.9411 C   0  0  1  0  0  0  0  0  0  0  0  0
    1.0436   -1.5366    1.1125 O   0  0  0  0  0  0  0  0  0  0  0  0
  1  2  1  0
  3  2  1  6
  3  4  1  0
  4  5  1  0
  5  6  1  0
  6  7  1  1
  6  8  1  0
  8  9  1  6
  8 10  1  0
 10 11  1  6
 10  3  1  0
M  END
>  <fragInfo>  (1) 
3 4 5 6 7 8 9 10 11
1 2


>  <torsionInfo>  (1) 
2 3 1 0


>  <atomInfo>  (1) 
1  -0.3946490OA
2  0.06105637C 
3  0.05902457C 
4  -0.3067635NA
5  0.02436730C 
6  0.09488935C 
7  -0.3889905OA
8  0.10855016C 
9  -0.3875979OA
10 0.09995681C 
11 -0.3885947OA


$$$$
