
     RDKit          3D

 22 23  0  0  0  0  0  0  0  0999 V2000
   -0.2941    3.2306   -0.3827 C   0  0  0  0  0  0  0  0  0  0  0  0
   -1.7157    3.7488   -0.5454 C   0  0  0  0  0  0  0  0  0  0  0  0
   -2.6008    3.1357    0.5211 C   0  0  0  0  0  0  0  0  0  0  0  0
   -3.3528    1.9238    0.0757 C   0  0  0  0  0  0  0  0  0  0  0  0
   -2.7150    0.6507    0.5757 C   0  0  0  0  0  0  0  0  0  0  0  0
   -2.2551   -0.1346   -0.2957 N   0  0  0  0  0  0  0  0  0  0  0  0
   -1.6337   -1.3477   -0.0218 C   0  0  1  0  0  0  0  0  0  0  0  0
   -0.6733   -1.7821   -0.9809 N   0  0  0  0  0  0  0  0  0  0  0  0
    0.4143   -1.1931   -1.5546 C   0  0  0  0  0  0  0  0  0  0  0  0
    1.3212   -0.3389   -1.1302 C   0  0  0  0  0  0  0  0  0  0  0  0
    2.3810    0.0696   -2.0956 C   0  0  0  0  0  0  0  0  0  0  0  0
    2.2393   -0.5653   -3.4026 C   0  0  0  0  0  0  0  0  0  0  0  0
    2.9284   -0.1229   -4.3829 N   0  0  0  0  0  0  0  0  0  0  0  0
    1.1421    0.0770    0.2801 C   0  0  0  0  0  0  0  0  0  0  0  0
    1.5912   -0.7045    1.3667 C   0  0  0  0  0  0  0  0  0  0  0  0
    2.2471   -1.2751    2.1976 C   0  0  0  0  0  0  0  0  0  0  0  0
    1.5571   -2.1169    3.2324 C   0  0  0  0  0  0  0  0  0  0  0  0
    0.3758   -2.6442    2.8484 C   0  0  0  0  0  0  0  0  0  0  0  0
   -0.1516   -2.3885    1.5166 C   0  0  0  0  0  0  0  0  0  0  0  0
   -1.1632   -1.5481    1.3724 C   0  0  0  0  0  0  0  0  0  0  0  0
    0.4963    1.1659    0.6388 N   0  0  0  0  0  0  0  0  0  0  0  0
   -0.1386    2.1598    0.1667 N   0  0  0  0  0  0  0  0  0  0  0  0
  1  2  1  0
  2  3  1  0
  3  4  1  0
  4  5  1  0
  5  6  2  3
  6  7  1  0
  7  8  1  6
  8  9  1  0
  9 10  2  3
 10 11  1  0
 11 12  1  0
 12 13  2  0
 10 14  1  0
 14 15  1  0
 15 16  2  3
 16 17  1  0
 17 18  2  3
 18 19  1  0
 19 20  2  3
 14 21  2  3
 21 22  1  0
  1 22  2  3
 20  7  1  0
M  END
>  <fragInfo>  (1) 
1 2 3 4 5 6 7 8 9 10 14 15 16 17 18 19 20 21 22
11
12 13


>  <torsionInfo>  (1) 
10 11 0 1
11 12 1 2


>  <atomInfo>  (1) 
1  0.02701556C 
2  -0.0152258C 
3  -0.0432930C 
4  -0.0174104C 
5  0.00162746C 
6  -0.2688296NA
7  0.13666590C 
8  -0.3663037N 
9  0.00419390C 
10 0.00065764C 
11 0.01078495C 
12 -0.0002461C 
13 -0.3127665NA
14 0.09062734C 
15 -0.0341775C 
16 -0.0600443C 
17 -0.0621991C 
18 -0.0624376C 
19 -0.0623176C 
20 -0.0403663C 
21 -0.1511518NA
22 -0.1629982NA


$$$$
