
     RDKit          3D

 24 25  0  0  0  0  0  0  0  0999 V2000
   -2.0088   -2.2181    0.2103 C   0  0  0  0  0  0  0  0  0  0  0  0
   -2.7284   -1.2059   -0.6137 C   0  0  1  0  0  0  0  0  0  0  0  0
   -3.7698   -0.4431    0.1316 C   0  0  0  0  0  0  0  0  0  0  0  0
   -3.1303    0.5878    1.0217 C   0  0  2  0  0  0  0  0  0  0  0  0
   -4.0773    1.5285    1.4007 O   0  0  0  0  0  0  0  0  0  0  0  0
   -1.9041    1.1917    0.4108 C   0  0  2  0  0  0  0  0  0  0  0  0
   -1.7640    2.5073    0.8171 O   0  0  0  0  0  0  0  0  0  0  0  0
   -1.9948    1.0537   -1.0936 C   0  0  1  0  0  0  0  0  0  0  0  0
   -1.1300    1.8980   -1.7447 O   0  0  0  0  0  0  0  0  0  0  0  0
   -1.8599   -0.3764   -1.4819 C   0  0  1  0  0  0  0  0  0  0  0  0
   -0.5403   -0.8956   -1.5417 N   0  0  0  0  0  0  0  0  0  0  0  0
    0.1941   -0.9218   -0.3122 C   0  0  0  0  0  3  0  0  0  0  0  0
    1.6671   -0.5565   -0.5628 C   0  0  1  0  0  0  0  0  0  0  0  0
    2.2815   -1.5553   -1.5281 C   0  0  0  0  0  0  0  0  0  0  0  0
    2.3001   -2.8355   -0.9946 O   0  0  0  0  0  0  0  0  0  0  0  0
    1.0595   -3.3394   -0.6861 C   0  0  0  0  0  0  0  0  0  0  0  0
    1.6595    0.7168   -1.0712 O   0  0  0  0  0  0  0  0  0  0  0  0
    2.6153    1.4790   -0.5995 O   0  0  0  0  0  0  0  0  0  0  0  0
    2.4687    1.7841    0.7295 C   0  0  1  0  0  0  0  0  0  0  0  0
    1.6049    2.8725    0.9365 O   0  0  0  0  0  0  0  0  0  0  0  0
    2.0103    0.5974    1.5495 C   0  0  2  0  0  0  0  0  0  0  0  0
    2.5880    0.5948    2.8160 O   0  0  0  0  0  0  0  0  0  0  0  0
    2.3693   -0.6463    0.7696 C   0  0  1  0  0  0  0  0  0  0  0  0
    2.0892   -1.8174    1.4369 O   0  0  0  0  0  0  0  0  0  0  0  0
  2  1  1  1
  2  3  1  0
  3  4  1  0
  4  5  1  6
  4  6  1  0
  6  7  1  6
  6  8  1  0
  8  9  1  6
  8 10  1  0
 10 11  1  1
 11 12  1  0
 13 12  1  1
 13 14  1  0
 14 15  1  0
 15 16  1  0
 13 17  1  0
 17 18  1  0
 18 19  1  0
 19 20  1  6
 19 21  1  0
 21 22  1  1
 21 23  1  0
 23 24  1  1
 10  2  1  0
 23 13  1  0
M  RAD  1  12   2
M  END
>  <fragInfo>  (1) 
1 2 3 4 5 6 7 8 9 10
11
12
13 17 18 19 20 21 22 23 24
14
15 16


>  <torsionInfo>  (1) 
10 11 0 1
11 12 1 2
12 13 2 3
13 14 3 4
14 15 4 5


>  <atomInfo>  (1) 
1  -0.0608233C 
2  -0.0236266C 
3  -0.0201755C 
4  0.08280077C 
5  -0.3903155OA
6  0.10722524C 
7  -0.3876533OA
8  0.09793102C 
9  -0.3886791OA
10 0.03850171C 
11 -0.3037968NA
12 0.06324844C 
13 0.17181755C 
14 0.08282114C 
15 -0.3813844OA
16 0.03561215C 
17 -0.2201537OA
18 -0.2009003OA
19 0.21722650C 
20 -0.3635695OA
21 0.13653104C 
22 -0.3848552OA
23 0.12100323C 
24 -0.3868878OA


$$$$
