
     RDKit          3D

 14 14  0  0  0  0  0  0  0  0999 V2000
    3.8456    1.2227   -1.0191 O   0  0  0  0  0  0  0  0  0  0  0  0
    3.4626    0.3101   -0.1882 O   0  0  0  0  0  0  0  0  0  0  0  0
    2.4412   -0.4733   -0.4078 C   0  0  0  0  0  3  0  0  0  0  0  0
    1.0974    0.1227   -0.2436 O   0  0  0  0  0  0  0  0  0  0  0  0
    0.3404   -1.1681    0.0294 C   0  0  2  0  0  0  0  0  0  0  0  0
   -0.4378   -1.2431   -1.3497 C   0  0  0  0  0  0  0  0  0  0  0  0
   -1.1403   -2.6288   -1.3023 C   0  0  0  0  0  2  0  0  0  0  0  0
   -0.7434   -0.4697    0.9786 C   0  0  1  0  0  0  0  0  0  0  0  0
   -0.2186   -0.2786    2.2731 N   0  0  0  0  0  0  0  0  0  0  0  0
   -0.0694   -1.4275    3.1009 C   0  0  0  0  0  2  0  0  0  0  0  0
   -1.1777    0.8807    0.5419 C   0  0  0  0  0  3  0  0  0  0  0  0
   -1.9281    1.0055   -0.7383 C   0  0  2  0  0  0  0  0  0  0  0  0
   -2.2028    2.4692   -1.1058 C   0  0  0  0  0  3  0  0  0  0  0  0
   -3.2691    1.6784   -0.5692 O   0  0  0  0  0  0  0  0  0  0  0  0
  1  2  1  0
  2  3  1  0
  3  4  1  0
  4  5  1  0
  5  6  1  6
  6  7  1  0
  5  8  1  0
  8  9  1  0
  9 10  1  0
  8 11  1  6
 12 11  1  1
 12 13  1  0
 12 14  1  0
 14 13  1  0
M  RAD  5   3   2   7   3  10   3  11   2  13   2
M  END
>  <fragInfo>  (1) 
12 13 14
1 2
3
4
5
6 7
8
9 10
11


>  <torsionInfo>  (1) 
11 12 8 0
2 3 1 2
3 4 2 3
4 5 3 4
5 6 4 5
5 8 4 6
8 9 6 7
8 11 6 8


>  <atomInfo>  (1) 
1  -0.2489199OA
2  -0.2014099OA
3  0.24545523C 
4  -0.3407128OA
5  0.07693622C 
6  -0.0216467C 
7  -0.0324686C 
8  0.03937341C 
9  -0.3051149NA
10 0.04103795C 
11 0.01264131C 
12 0.09177045C 
13 0.11317849C 
14 -0.3662668OA


$$$$
