
     RDKit          3D

 29 29  0  0  0  0  0  0  0  0999 V2000
    7.9384   -1.2755    0.9310 C   0  0  0  0  0  0  0  0  0  0  0  0
    7.8803    0.2378    0.7860 C   0  0  0  0  0  0  0  0  0  0  0  0
    7.4693    0.8350    2.1089 C   0  0  0  0  0  0  0  0  0  0  0  0
    6.8064    0.5612   -0.2301 C   0  0  0  0  0  0  0  0  0  0  0  0
    5.4965   -0.0028    0.3187 C   0  0  0  0  0  0  0  0  0  0  0  0
    4.4260    0.3170   -0.6894 C   0  0  0  0  0  0  0  0  0  0  0  0
    3.1126   -0.2319   -0.1702 C   0  0  1  0  0  0  0  0  0  0  0  0
    2.8059    0.4274    1.1612 C   0  0  0  0  0  0  0  0  0  0  0  0
    1.9985   -0.0719   -1.1646 C   0  0  0  0  0  3  0  0  0  0  0  0
    0.7364   -0.6317   -0.5916 C   0  0  1  0  0  0  0  0  0  0  0  0
    0.2978    0.0298    0.6723 C   0  0  0  0  0  0  0  0  0  0  0  0
   -0.5332   -0.9726    1.4635 C   0  0  0  0  0  0  0  0  0  0  0  0
   -1.5237   -1.5953    0.5205 C   0  0  0  0  0  0  0  0  0  0  0  0
    0.3697   -2.0908    1.9666 C   0  0  0  0  0  0  0  0  0  0  0  0
   -1.1555   -0.2388    2.5794 C   0  0  0  0  0  0  0  0  0  0  0  0
   -2.3929    0.1932    2.4607 C   0  0  0  0  0  0  0  0  0  0  0  0
   -3.1844   -0.0416    1.2214 C   0  0  0  0  0  0  0  0  0  0  0  0
   -4.5986   -0.2896    1.5311 C   0  0  0  0  0  0  0  0  0  0  0  0
   -5.5885   -0.1423    0.6785 C   0  0  0  0  0  0  0  0  0  0  0  0
   -6.9186   -0.4024    1.0596 O   0  0  0  0  0  0  0  0  0  0  0  0
   -5.2582    0.3075   -0.7001 C   0  0  2  0  0  0  0  0  0  0  0  0
   -6.3771   -0.5697   -1.8499 S   0  0  0  0  0  0  0  0  0  0  0  0
   -3.9614   -0.0822   -1.0324 O   0  0  0  0  0  0  0  0  0  0  0  0
   -3.3701    0.7155   -2.4075 S   0  0  0  0  0  0  0  0  0  0  0  0
   -2.5204    2.2641   -2.0146 C   0  0  0  0  0  0  0  0  0  0  0  0
   -0.7192    2.0493   -2.0089 S   0  0  0  0  0  0  0  0  0  0  0  0
   -0.2537    0.4100   -2.6426 C   0  0  0  0  0  0  0  0  0  0  0  0
   -0.4032   -0.6550   -1.5785 C   0  0  1  0  0  0  0  0  0  0  0  0
   -0.5793   -2.2704   -2.3789 S   0  0  0  0  0  0  0  0  0  0  0  0
  1  2  1  0
  2  3  1  0
  2  4  1  0
  4  5  1  0
  5  6  1  0
  6  7  1  0
  7  8  1  1
  7  9  1  0
 10  9  1  6
 10 11  1  0
 11 12  1  0
 12 13  1  0
 12 14  1  0
 12 15  1  0
 15 16  2  3
 16 17  1  0
 17 18  1  0
 18 19  2  3
 19 20  1  0
 19 21  1  0
 21 22  1  6
 21 23  1  0
 23 24  1  0
 24 25  1  0
 25 26  1  0
 26 27  1  0
 27 28  1  0
 28 29  1  6
 28 10  1  0
M  RAD  1   9   2
M  END
>  <fragInfo>  (1) 
10 11 12 13 14 15 16 17 18 19 20 21 22 23 24 25 26 27 28 29
1 2 3
4
5
6
7 8
9


>  <torsionInfo>  (1) 
9 10 6 0
2 4 1 2
4 5 2 3
5 6 3 4
6 7 4 5
7 9 5 6


>  <atomInfo>  (1) 
1  -0.0627736C 
2  -0.0471324C 
3  -0.0627736C 
4  -0.0509643C 
5  -0.0527981C 
6  -0.0504154C 
7  -0.0408440C 
8  -0.0622231C 
9  -0.0314952C 
10 -0.0247308C 
11 -0.0404220C 
12 -0.0171592C 
13 -0.0563969C 
14 -0.0563969C 
15 -0.0825359C 
16 -0.0840735C 
17 -0.0131658C 
18 -0.0393414C 
19 0.12878917C 
20 -0.5088860OA
21 0.17115257C 
22 -0.1388683SA
23 -0.2926545OA
24 0.00401120SA
25 0.06565678C 
26 -0.1474803SA
27 0.00614530C 
28 0.01391923C 
29 -0.1747632SA


$$$$
