
     RDKit          3D

 33 34  0  0  0  0  0  0  0  0999 V2000
   -3.0457   -2.0507   -0.4907 C   0  0  1  0  0  0  0  0  0  0  0  0
   -4.0661   -1.7247    0.5732 C   0  0  1  0  0  0  0  0  0  0  0  0
   -3.4624   -1.1371    1.8117 C   0  0  0  0  0  0  0  0  0  0  0  0
   -5.1973   -0.9124    0.0200 C   0  0  0  0  0  0  0  0  0  0  0  0
   -5.3915    0.4006    0.7367 C   0  0  0  0  0  0  0  0  0  0  0  0
   -6.0682    1.3589   -0.2363 C   0  0  0  0  0  0  0  0  0  0  0  0
   -5.1447    2.5242   -0.5204 C   0  0  1  0  0  0  0  0  0  0  0  0
   -5.5440    3.6573    0.3829 C   0  0  0  0  0  0  0  0  0  0  0  0
   -3.7358    2.0934   -0.1647 C   0  0  0  0  0  3  0  0  0  0  0  0
   -3.0041    1.7302   -1.4280 C   0  0  0  0  0  0  0  0  0  0  0  0
   -2.0114    2.8268   -1.7489 C   0  0  0  0  0  0  0  0  0  0  0  0
   -1.2105    3.1830   -0.5165 C   0  0  1  0  0  0  0  0  0  0  0  0
   -2.0709    3.5966    0.6369 C   0  0  0  0  0  0  0  0  0  0  0  0
   -0.3864    1.9900   -0.1027 C   0  0  0  0  0  3  0  0  0  0  0  0
   -0.8642    1.3770    1.1738 C   0  0  0  0  0  0  0  0  0  0  0  0
   -0.2537    0.0094    1.3642 C   0  0  0  0  0  0  0  0  0  0  0  0
    0.4489   -0.3837    0.1019 C   0  0  1  0  0  0  0  0  0  0  0  0
    1.5426   -1.4046    0.4162 C   0  0  0  0  0  0  0  0  0  0  0  0
    2.1938   -1.7370   -0.9315 C   0  0  0  0  0  0  0  0  0  0  0  0
    2.7600   -0.4273   -1.4945 C   0  0  0  0  0  0  0  0  0  0  0  0
    3.7707    0.0559   -0.4649 C   0  0  0  0  0  0  0  0  0  0  0  0
    4.8423   -0.9893   -0.3056 C   0  0  0  0  0  0  0  0  0  0  0  0
    5.7665   -0.5340    0.6440 O   0  0  0  0  0  0  0  0  0  0  0  0
    6.7869   -1.4658    0.8338 C   0  0  0  0  0  3  0  0  0  0  0  0
    8.1106   -0.9473    0.3325 C   0  0  0  0  0  0  0  0  0  0  0  0
    7.9518    0.4459   -0.2372 C   0  0  1  0  0  0  0  0  0  0  0  0
    7.4428    1.4320    0.7668 C   0  0  0  0  0  0  0  0  0  0  0  0
    9.1006    0.8566   -0.8814 O   0  0  0  0  0  0  0  0  0  0  0  0
   -0.5710   -1.0891   -0.7930 C   0  0  0  0  0  0  0  0  0  0  0  0
   -0.6282   -2.5522   -0.4771 C   0  0  0  0  0  0  0  0  0  0  0  0
   -1.9946   -2.9695    0.0268 C   0  0  2  0  0  0  0  0  0  0  0  0
   -2.5687   -4.0103   -0.8516 C   0  0  0  0  0  0  0  0  0  0  0  0
   -3.4982   -3.2027   -1.3111 C   0  0  0  0  0  0  0  0  0  0  0  0
  1  2  1  0
  2  3  1  1
  2  4  1  0
  4  5  1  0
  5  6  1  0
  6  7  1  0
  7  8  1  1
  7  9  1  0
  9 10  1  0
 10 11  1  0
 11 12  1  0
 12 13  1  1
 12 14  1  0
 14 15  1  0
 15 16  1  0
 16 17  1  0
 17 18  1  1
 18 19  1  0
 19 20  1  0
 20 21  1  0
 21 22  1  0
 22 23  1  0
 23 24  1  0
 24 25  1  0
 25 26  1  0
 26 27  1  1
 26 28  1  0
 17 29  1  0
 29 30  1  0
 31 30  1  6
 31 32  1  0
 32 33  2  0
 31  1  1  0
  1 33  1  6
M  RAD  3   9   2  14   2  24   2
M  END
>  <fragInfo>  (1) 
1 2 3 4 5 6 7 8 9 10 11 12 13 14 15 16 17 29 30 31 32 33
18
19
20
21
22
23
24
25
26 27 28


>  <torsionInfo>  (1) 
17 18 0 1
18 19 1 2
19 20 2 3
20 21 3 4
21 22 4 5
22 23 5 6
23 24 6 7
24 25 7 8
25 26 8 9


>  <atomInfo>  (1) 
1  -0.0144683C 
2  -0.0373993C 
3  -0.0619250C 
4  -0.0501177C 
5  -0.0527665C 
6  -0.0504260C 
7  -0.0411603C 
8  -0.0622342C 
9  -0.0357403C 
10 -0.0496542C 
11 -0.0501522C 
12 -0.0411500C 
13 -0.0622340C 
14 -0.0357401C 
15 -0.0496545C 
16 -0.0501631C 
17 -0.0413965C 
18 -0.0504457C 
19 -0.0529579C 
20 -0.0511037C 
21 -0.0295859C 
22 0.04706853C 
23 -0.3754178OA
24 0.08616299C 
25 0.00177366C 
26 0.05373669C 
27 -0.0388527C 
28 -0.3933152OA
29 -0.0498654C 
30 -0.0461231C 
31 -0.0167747C 
32 -0.0845127C 
33 -0.0842670C 


$$$$
