
     RDKit          3D

 63 62  0  0  0  0  0  0  0  0999 V2000
   11.5925   -0.9439   -2.5480 C   0  0  0  0  0  0  0  0  0  0  0  0
   12.6815   -0.1892   -1.8550 C   0  0  0  0  0  0  0  0  0  0  0  0
   13.9476   -0.3746   -2.3117 C   0  0  0  0  0  0  0  0  0  0  0  0
   15.0084    0.3681   -1.6273 C   0  0  0  0  0  0  0  0  0  0  0  0
   16.2667    0.2921   -1.9521 C   0  0  0  0  0  0  0  0  0  0  0  0
   17.3325    1.0340   -1.2696 C   0  0  0  0  0  0  0  0  0  0  0  0
   17.0681    1.9597   -0.1390 C   0  0  0  0  0  0  0  0  0  0  0  0
   18.5669    0.8540   -1.7140 C   0  0  0  0  0  0  0  0  0  0  0  0
   19.7441    1.5113   -1.1500 C   0  0  0  0  0  0  0  0  0  0  0  0
   20.8069    0.5570   -0.6999 C   0  0  0  0  0  0  0  0  0  0  0  0
   20.3126   -0.3624    0.3406 C   0  0  0  0  0  0  0  0  0  0  0  0
   19.1782   -0.2926    0.7245 O   0  0  0  0  0  0  0  0  0  0  0  0
   12.4526    0.6968   -0.7593 C   0  0  0  0  0  0  0  0  0  0  0  0
   11.4025    1.0243   -0.1745 C   0  0  0  0  0  0  0  0  0  0  0  0
    9.9840    0.7767   -0.2049 C   0  0  1  0  0  0  0  0  0  0  0  0
    9.3589    1.5977   -1.3420 C   0  0  2  0  0  0  0  0  0  0  0  0
    9.6325    3.0783   -1.0890 C   0  0  0  0  0  0  0  0  0  0  0  0
    7.8856    1.3681   -1.2128 C   0  0  0  0  0  0  0  0  0  0  0  0
    7.1082    0.9278   -2.1661 C   0  0  0  0  0  0  0  0  0  0  0  0
    7.5206    0.5795   -3.5295 C   0  0  0  0  0  0  0  0  0  0  0  0
    8.9965    0.8494   -3.6966 C   0  0  0  0  0  0  0  0  0  0  0  0
    9.6484   -0.9914   -0.3923 S   0  0  0  0  0  0  0  0  0  0  0  0
    9.4129    1.2717    1.1299 C   0  0  0  0  0  0  0  0  0  0  0  0
    7.9066    1.0397    1.1660 C   0  0  0  0  0  0  0  0  0  0  0  0
    7.4257    1.5387    2.4811 C   0  0  0  0  0  0  0  0  0  0  0  0
    6.2715    1.0587    2.9018 C   0  0  0  0  0  0  0  0  0  0  0  0
    4.7846    0.5637    3.3366 S   0  0  0  0  0  0  0  0  0  0  0  0
    4.2594   -1.0160    2.7134 N   0  0  0  0  0  0  0  0  0  0  0  0
    3.0788   -0.8869    1.8756 C   0  0  0  0  0  0  0  0  0  0  0  0
    2.7140   -2.2550    1.3941 C   0  0  0  0  0  0  0  0  0  0  0  0
    1.4910   -2.2748    0.5034 C   0  0  0  0  0  0  0  0  0  0  0  0
    1.1976   -3.6654    0.0671 C   0  0  0  0  0  0  0  0  0  0  0  0
    0.0488   -4.2585    0.3529 C   0  0  0  0  0  0  0  0  0  0  0  0
   -0.9749   -3.5134    1.1303 C   0  0  0  0  0  0  0  0  0  0  0  0
   -2.2402   -3.3846    0.3759 C   0  0  0  0  0  0  0  0  0  0  0  0
   -2.6358   -2.1785   -0.5838 S   0  0  0  0  0  0  0  0  0  0  0  0
   -4.2406   -2.4910   -1.2450 N   0  0  0  0  0  0  0  0  0  0  0  0
   -5.0253   -3.3177   -0.3430 C   0  0  0  0  0  0  0  0  0  0  0  0
   -6.3662   -3.5470   -0.9713 C   0  0  2  0  0  0  0  0  0  0  0  0
   -6.2105   -4.2509   -2.3070 C   0  0  0  0  0  0  0  0  0  0  0  0
   -7.1939   -1.9710   -1.2663 S   0  0  0  0  0  0  0  0  0  0  0  0
   -7.5717   -1.2188    0.2810 N   0  0  0  0  0  0  0  0  0  0  0  0
   -8.9420   -1.5022    0.6669 C   0  0  0  0  0  0  0  0  0  0  0  0
   -9.2873   -0.8698    1.9656 C   0  0  0  0  0  0  0  0  0  0  0  0
   -9.6611   -1.6341    2.9655 C   0  0  0  0  0  0  0  0  0  0  0  0
   -9.2262    0.6055    2.1762 C   0  0  0  0  0  0  0  0  0  0  0  0
  -10.3445    1.4518    1.0271 S   0  0  0  0  0  0  0  0  0  0  0  0
  -12.0491    0.9831    1.4913 C   0  0  0  0  0  0  0  0  0  0  0  0
  -12.3282    1.5784    2.8586 C   0  0  2  0  0  0  0  0  0  0  0  0
  -11.3922    1.0618    3.8172 N   0  0  0  0  0  0  0  0  0  0  0  0
  -14.0354    1.1384    3.3023 S   0  0  0  0  0  0  0  0  0  0  0  0
  -15.1446    1.9557    2.1734 C   0  0  0  0  0  0  0  0  0  0  0  0
  -16.3739    1.7776    2.3390 O   0  0  0  0  0  0  0  0  0  0  0  0
  -14.6809    2.8038    1.0904 C   0  0  0  0  0  0  0  0  0  0  0  0
  -15.7540    3.5162    0.0985 S   0  0  0  0  0  0  0  0  0  0  0  0
  -17.5522    3.3426    0.2246 C   0  0  0  0  0  0  0  0  0  0  0  0
  -18.0805    2.1643   -0.5179 C   0  0  0  0  0  0  0  0  0  0  0  0
  -18.7253    1.2523    0.1708 C   0  0  0  0  0  0  0  0  0  0  0  0
  -17.8598    2.0663   -1.9722 C   0  0  0  0  0  0  0  0  0  0  0  0
  -18.4036    0.8140   -2.5732 C   0  0  0  0  0  0  0  0  0  0  0  0
  -17.7398   -0.3646   -1.9696 C   0  0  0  0  0  0  0  0  0  0  0  0
  -18.1823   -1.7258   -2.4282 C   0  0  0  0  0  0  0  0  0  0  0  0
  -16.8651   -0.2589   -1.1309 O   0  0  0  0  0  0  0  0  0  0  0  0
  1  2  1  0
  2  3  2  0
  3  4  1  0
  4  5  2  0
  5  6  1  0
  6  7  1  0
  6  8  2  0
  8  9  1  0
  9 10  1  0
 10 11  1  0
 11 12  2  0
  2 13  1  0
 13 14  2  3
 14 15  1  0
 15 16  1  0
 16 17  1  1
 16 18  1  0
 18 19  2  3
 19 20  1  0
 20 21  1  0
 15 22  1  6
 15 23  1  0
 23 24  1  0
 24 25  1  0
 25 26  2  0
 26 27  2  0
 27 28  1  0
 28 29  1  0
 29 30  1  0
 30 31  1  0
 31 32  1  0
 32 33  2  3
 33 34  1  0
 34 35  1  0
 35 36  2  3
 36 37  1  0
 37 38  1  0
 38 39  1  0
 39 40  1  6
 39 41  1  0
 41 42  1  0
 42 43  1  0
 43 44  1  0
 44 45  2  0
 44 46  1  0
 46 47  1  0
 47 48  1  0
 48 49  1  0
 49 50  1  1
 49 51  1  0
 51 52  1  0
 52 53  2  0
 52 54  1  0
 54 55  2  3
 55 56  1  0
 56 57  1  0
 57 58  2  0
 57 59  1  0
 59 60  1  0
 60 61  1  0
 61 62  1  0
 61 63  2  0
M  END
>  <fragInfo>  (1) 
1 2 3
4 5
6 7 8
9
10
11 12
13 14
15 22
16 17
18 19
20 21
23
24
25 26 27
28
29
30
31
32 33
34
35 36
37
38
39 40
41
42
43
44 45
46
47
48
49 50
51
52 53
54 55
56
57 58
59
60
61 62 63


>  <torsionInfo>  (1) 
2 13 0 6
3 4 0 1
5 6 1 2
8 9 2 3
9 10 3 4
10 11 4 5
14 15 6 7
15 16 7 8
15 23 7 11
16 18 8 9
19 20 9 10
23 24 11 12
24 25 12 13
27 28 13 14
28 29 14 15
29 30 15 16
30 31 16 17
31 32 17 18
33 34 18 19
34 35 19 20
36 37 20 21
37 38 21 22
38 39 22 23
39 41 23 24
41 42 24 25
42 43 25 26
43 44 26 27
44 46 27 28
46 47 28 29
47 48 29 30
48 49 30 31
49 51 31 32
51 52 32 33
52 54 33 34
55 56 34 35
56 57 35 36
57 59 36 37
59 60 37 38
60 61 38 39


>  <atomInfo>  (1) 
1  -0.0397850C 
2  -0.0513989C 
3  -0.0593272C 
4  -0.0617525C 
5  -0.0596340C 
6  -0.0551135C 
7  -0.0400909C 
8  -0.0811708C 
9  -0.0278582C 
10 0.00649104C 
11 0.11979940C 
12 -0.3033905OA
13 -0.0619388C 
14 -0.0679099C 
15 0.03744749C 
16 -0.0081165C 
17 -0.0573715C 
18 -0.0840119C 
19 -0.0884819C 
20 -0.0379212C 
21 -0.0618859C 
22 -0.1676703SA
23 -0.0304420C 
24 -0.0249817C 
25 -0.0319752C 
26 -0.0688751C 
27 -0.1504168S 
28 -0.2541809NA
29 0.00899424C 
30 -0.0359855C 
31 -0.0338076C 
32 -0.0881595C 
33 -0.0842139C 
34 -0.0104586C 
35 -0.0463478C 
36 -0.1394619S 
37 -0.2711468NA
38 0.01808976C 
39 0.02981627C 
40 -0.0507608C 
41 -0.0773969SA
42 -0.2597615NA
43 0.02742974C 
44 -0.0527592C 
45 -0.0977105C 
46 0.01540286C 
47 -0.1549914SA
48 0.01869034C 
49 0.06778229C 
50 -0.3182853NA
51 -0.0632116SA
52 0.22140060C 
53 -0.2813485OA
54 0.02549799C 
55 -0.2508831S 
56 0.01615000C 
57 -0.0649118C 
58 -0.0987752C 
59 -0.0243261C 
60 0.00953389C 
61 0.12965933C 
62 -0.0056555C 
63 -0.3000184OA


$$$$
