
     RDKit          3D

 25 25  0  0  0  0  0  0  0  0999 V2000
    5.1170   -1.4028   -2.4688 C   0  0  0  0  0  0  0  0  0  0  0  0
    5.6076   -0.1965   -1.7033 C   0  0  0  0  0  3  0  0  0  0  0  0
    5.6149   -0.4215   -0.2257 C   0  0  0  0  0  0  0  0  0  0  0  0
    4.2850   -0.7380    0.3635 C   0  0  2  0  0  0  0  0  0  0  0  0
    3.7694   -1.8912   -0.2005 O   0  0  0  0  0  0  0  0  0  0  0  0
    3.3057    0.4101    0.3132 C   0  0  2  0  0  0  0  0  0  0  0  0
    3.7963    1.5634    0.8671 O   0  0  0  0  0  0  0  0  0  0  0  0
    2.0919   -0.0120    1.1303 C   0  0  1  0  0  0  0  0  0  0  0  0
    2.5673   -0.2115    2.4402 O   0  0  0  0  0  0  0  0  0  0  0  0
    1.0583    1.0920    1.1814 C   0  0  0  0  0  3  0  0  0  0  0  0
    0.5853    1.4547   -0.1186 N   0  0  0  0  0  0  0  0  0  0  0  0
   -0.7640    2.0186   -0.0792 C   0  0  0  0  0  3  0  0  0  0  0  0
   -1.7177    0.8508   -0.0522 C   0  0  2  0  0  0  0  0  0  0  0  0
   -1.5806   -0.0338   -1.2582 C   0  0  1  0  0  0  0  0  0  0  0  0
   -0.9078    0.6029   -2.2890 O   0  0  0  0  0  0  0  0  0  0  0  0
   -0.8214   -1.2858   -0.8205 C   0  0  0  0  0  0  0  0  0  0  0  0
   -1.6570   -2.0701   -0.0511 O   0  0  0  0  0  0  0  0  0  0  0  0
   -2.6366   -1.4069    0.4956 O   0  0  0  0  0  0  0  0  0  0  0  0
   -3.6792   -1.1415   -0.3540 C   0  0  1  0  0  0  0  0  0  0  0  0
   -4.7503   -1.9626    0.0040 O   0  0  0  0  0  0  0  0  0  0  0  0
   -4.0548    0.3024   -0.4474 C   0  0  2  0  0  0  0  0  0  0  0  0
   -4.0496    0.6609   -1.8047 O   0  0  0  0  0  0  0  0  0  0  0  0
   -3.1221    1.2272    0.2733 C   0  0  1  0  0  0  0  0  0  0  0  0
   -3.3913    1.1150    1.6473 O   0  0  0  0  0  0  0  0  0  0  0  0
   -4.6665    1.4763    1.8039 O   0  0  0  0  0  0  0  0  0  0  0  0
  1  2  1  0
  2  3  1  0
  3  4  1  0
  4  5  1  6
  4  6  1  0
  6  7  1  1
  6  8  1  0
  8  9  1  1
  8 10  1  0
 10 11  1  0
 11 12  1  0
 13 12  1  6
 13 14  1  0
 14 15  1  6
 14 16  1  0
 16 17  1  0
 17 18  1  0
 18 19  1  0
 19 20  1  1
 19 21  1  0
 21 22  1  6
 21 23  1  0
 23 24  1  1
 24 25  1  0
 23 13  1  0
M  RAD  3   2   2  10   2  12   2
M  END
>  <fragInfo>  (1) 
13 14 15 16 17 18 19 20 21 22 23
1 2
3
4 5
6 7
8 9
10
11
12
24 25


>  <torsionInfo>  (1) 
12 13 8 0
23 24 0 9
2 3 1 2
3 4 2 3
4 6 3 4
6 8 4 5
8 10 5 6
10 11 6 7
11 12 7 8


>  <atomInfo>  (1) 
1  -0.0621560C 
2  -0.0390442C 
3  -0.0215029C 
4  0.08275185C 
5  -0.3903164OA
6  0.10727844C 
7  -0.3876524OA
8  0.09929466C 
9  -0.3886235OA
10 0.05394826C 
11 -0.3051125NA
12 0.03108155C 
13 0.03634746C 
14 0.08757018C 
15 -0.3901359OA
16 0.10865963C 
17 -0.2311858OA
18 -0.2016198OA
19 0.21722298C 
20 -0.3635695OA
21 0.13728426C 
22 -0.3848260OA
23 0.13048601C 
24 -0.2326759OA
25 -0.2514252OA


$$$$
