
     RDKit          3D

 25 25  0  0  0  0  0  0  0  0999 V2000
   -3.0204   -0.7908    1.6158 C   0  0  0  0  0  0  0  0  0  0  0  0
   -3.4867   -1.0298    0.1404 C   0  0  1  0  0  0  0  0  0  0  0  0
   -4.8969   -0.6274   -0.0192 C   0  0  0  0  0  0  0  0  0  0  0  0
   -5.1141    0.8264    0.2946 C   0  0  2  0  0  0  0  0  0  0  0  0
   -5.9591    1.4084   -0.6426 O   0  0  0  0  0  0  0  0  0  0  0  0
   -3.8412    1.5990    0.4944 C   0  0  2  0  0  0  0  0  0  0  0  0
   -4.1463    2.9338    0.5792 O   0  0  0  0  0  0  0  0  0  0  0  0
   -2.8493    1.3118   -0.6224 C   0  0  1  0  0  0  0  0  0  0  0  0
   -1.7111    2.1164   -0.4643 O   0  0  0  0  0  0  0  0  0  0  0  0
   -2.5647   -0.1070   -0.6666 C   0  0  1  0  0  0  0  0  0  0  0  0
   -1.2916   -0.5928   -0.5275 O   0  0  0  0  0  0  0  0  0  0  0  0
   -0.4692    0.3447    0.0963 C   0  0  0  0  0  3  0  0  0  0  0  0
    0.9531    0.0856   -0.2643 C   0  0  0  0  0  0  0  0  0  0  0  0
    1.2146   -1.3774   -0.1941 C   0  0  2  0  0  0  0  0  0  0  0  0
    0.3437   -2.1561   -0.9732 O   0  0  0  0  0  0  0  0  0  0  0  0
    1.0650   -1.9079    1.2114 C   0  0  0  0  0  0  0  0  0  0  0  0
    1.1486   -0.7947    2.0936 O   0  0  0  0  0  0  0  0  0  0  0  0
    2.5720   -1.7008   -0.8266 C   0  0  2  0  0  0  0  0  0  0  0  0
    2.7298   -3.2058   -0.9082 C   0  0  0  0  0  2  0  0  0  0  0  0
    4.0013   -1.1045    0.1698 P   0  0  0  0  0  0  0  0  0  0  0  0
    4.3155   -2.0416    1.5692 O   0  0  0  0  0  0  0  0  0  0  0  0
    3.9868    0.7000    0.4826 C   0  0  0  0  0  3  0  0  0  0  0  0
    5.2926    1.0623    1.1777 C   0  0  0  0  0  3  0  0  0  0  0  0
    6.0833    1.9003    0.4042 O   0  0  0  0  0  0  0  0  0  0  0  0
    5.6445    3.1480    0.4811 O   0  0  0  0  0  0  0  0  0  0  0  0
  2  1  1  1
  2  3  1  0
  3  4  1  0
  4  5  1  6
  4  6  1  0
  6  7  1  6
  6  8  1  0
  8  9  1  1
  8 10  1  0
 10 11  1  1
 11 12  1  0
 12 13  1  0
 13 14  1  0
 14 15  1  6
 14 16  1  0
 16 17  1  0
 14 18  1  0
 18 19  1  1
 18 20  1  0
 20 21  1  0
 20 22  1  0
 22 23  1  0
 23 24  1  0
 24 25  1  0
 10  2  1  0
M  RAD  4  12   2  19   3  22   2  23   2
M  END
>  <fragInfo>  (1) 
1 2 3 4 5 6 7 8 9 10
11
12
13
14 15
16 17
18 19
20 21
22
23
24 25


>  <torsionInfo>  (1) 
10 11 0 1
11 12 1 2
12 13 2 3
13 14 3 4
14 16 4 5
14 18 4 6
18 20 6 7
20 22 7 8
22 23 8 9
23 24 9 10


>  <atomInfo>  (1) 
1  -0.0598291C 
2  -0.0125928C 
3  -0.0191845C 
4  0.08288043C 
5  -0.3903140OA
6  0.10825157C 
7  -0.3876104OA
8  0.10877534C 
9  -0.3875888OA
10 0.08915396C 
11 -0.3690922OA
12 0.08712624C 
13 0.00791484C 
14 0.09936728C 
15 -0.3866266OA
16 0.07270788C 
17 -0.3933561OA
18 0.03815184C 
19 -0.0217463C 
20 0.03841350P 
21 -0.3730031OA
22 0.04732350C 
23 0.13227421C 
24 -0.2323966OA
25 -0.2514139OA


$$$$
