
     RDKit          3D

 55 60  0  0  0  0  0  0  0  0999 V2000
   11.2014   -1.3338   -1.2781 C   0  0  0  0  0  0  0  0  0  0  0  0
   10.1333   -0.7974   -0.6532 C   0  0  0  0  0  0  0  0  0  0  0  0
    8.9637   -0.3126   -1.4359 C   0  0  0  0  0  0  0  0  0  0  0  0
    8.7911    1.1659   -1.1499 C   0  0  2  0  0  0  0  0  0  0  0  0
    8.5562    1.3179    0.3266 C   0  0  0  0  0  3  0  0  0  0  0  0
    8.2262    2.7185    0.7398 C   0  0  0  0  0  0  0  0  0  0  0  0
    9.4965    3.5505    0.8911 C   0  0  0  0  0  0  0  0  0  0  0  0
    7.5853    2.6511    2.1310 C   0  0  0  0  0  0  0  0  0  0  0  0
    7.2629    3.4107   -0.1710 C   0  0  0  0  0  0  0  0  0  0  0  0
    7.5285    3.1883   -1.6307 C   0  0  0  0  0  0  0  0  0  0  0  0
    7.5533    1.6787   -1.8912 C   0  0  0  0  0  3  0  0  0  0  0  0
    6.3442    1.1215   -1.1980 C   0  0  0  0  0  0  0  0  0  0  0  0
    6.4057   -0.0728   -0.6557 C   0  0  0  0  0  0  0  0  0  0  0  0
    5.3108   -0.7462    0.0517 C   0  0  0  0  0  0  0  0  0  0  0  0
    4.9115   -2.0600   -0.5834 C   0  0  2  0  0  0  0  0  0  0  0  0
    4.4983   -1.7937   -1.8846 O   0  0  0  0  0  0  0  0  0  0  0  0
    3.7549   -2.5963    0.1659 C   0  0  0  0  0  0  0  0  0  0  0  0
    2.5860   -2.0044    0.0416 C   0  0  0  0  0  0  0  0  0  0  0  0
    1.4352   -2.5231    0.7764 C   0  0  0  0  0  0  0  0  0  0  0  0
    0.5762   -1.6484    1.2700 C   0  0  0  0  0  0  0  0  0  0  0  0
    2.4318   -0.8170   -0.8385 C   0  0  0  0  0  0  0  0  0  0  0  0
    1.8093   -1.2569   -2.1224 C   0  0  0  0  0  0  0  0  0  0  0  0
    0.4337   -1.8635   -1.9634 C   0  0  0  0  0  0  0  0  0  0  0  0
   -0.5749   -0.7120   -2.0733 C   0  0  2  0  0  0  0  0  0  0  0  0
   -0.1176    0.3377   -1.2427 N   0  0  0  0  0  0  0  0  0  0  0  0
   -0.7864    1.2390   -0.6890 C   0  0  0  0  0  0  0  0  0  0  0  0
   -2.2141    1.5013   -0.7133 C   0  0  0  0  0  0  0  0  0  0  0  0
   -3.0119    0.8197    0.3384 C   0  0  0  0  0  0  0  0  0  0  0  0
   -2.5250    0.8544    1.5396 C   0  0  0  0  0  0  0  0  0  0  0  0
   -2.5102   -0.3216    2.2172 C   0  0  0  0  0  0  0  0  0  0  0  0
   -1.1620   -0.6792    2.6408 C   0  0  2  0  0  0  0  0  0  0  0  0
   -0.2313    0.4829    2.5712 C   0  0  0  0  0  0  0  0  0  0  0  0
   -0.6323   -1.9473    2.0303 C   0  0  1  0  0  0  0  0  0  0  0  0
   -1.7215   -2.6009    1.2536 C   0  0  2  0  0  0  0  0  0  0  0  0
   -1.8288   -4.0793    1.4841 C   0  0  0  0  0  0  0  0  0  0  0  0
   -1.7106   -2.2454   -0.1511 N   0  0  0  0  0  0  0  0  0  0  0  0
   -2.0749   -1.4509   -1.0598 S   0  0  2  0  0  0  0  0  0  0  0  0
   -3.3035   -0.9703   -1.9114 C   0  0  0  0  0  0  0  0  0  0  0  0
   -4.5144   -0.3187   -1.2872 C   0  0  1  0  0  0  0  0  0  0  0  0
   -5.6139   -1.3592   -1.2609 C   0  0  0  0  0  2  0  0  0  0  0  0
   -4.2728    0.1422    0.1132 C   0  0  1  0  0  0  0  0  0  0  0  0
   -4.4339   -0.9604    1.0902 C   0  0  0  0  0  0  0  0  0  0  0  0
   -3.8009   -0.9102    2.3212 C   0  0  0  0  0  0  0  0  0  0  0  0
   -4.6598   -1.4207    3.3916 C   0  0  0  0  0  0  0  0  0  0  0  0
   -4.1617   -2.6938    3.9786 C   0  0  0  0  0  0  0  0  0  0  0  0
   -5.0215    0.8368   -2.1242 C   0  0  0  0  0  0  0  0  0  0  0  0
   -6.2208    1.4963   -1.5230 C   0  0  0  0  0  0  0  0  0  0  0  0
   -6.0240    2.0652   -0.1877 C   0  0  0  0  0  0  0  0  0  0  0  0
   -6.7501    1.6440    0.8321 C   0  0  0  0  0  0  0  0  0  0  0  0
   -7.7645    0.5889    0.6010 C   0  0  0  0  0  0  0  0  0  0  0  0
   -9.1605    1.0601    0.9497 C   0  0  2  0  0  0  0  0  0  0  0  0
  -10.1218   -0.0727    0.6831 C   0  0  0  0  0  0  0  0  0  0  0  0
   -9.4458    2.2486    0.1341 C   0  0  0  0  0  0  0  0  0  0  0  0
   -9.1074    3.1946   -0.7993 C   0  0  0  0  0  0  0  0  0  0  0  0
  -10.3172    3.2539   -0.2388 O   0  0  0  0  0  0  0  0  0  0  0  0
  1  2  2  0
  2  3  1  0
  4  3  1  1
  4  5  1  0
  5  6  1  0
  6  7  1  0
  6  8  1  0
  6  9  1  0
  9 10  1  0
 10 11  1  0
 11 12  1  0
 12 13  2  3
 13 14  1  0
 14 15  1  0
 15 16  1  6
 15 17  1  0
 17 18  2  3
 18 19  1  0
 19 20  2  3
 18 21  1  0
 21 22  1  0
 22 23  1  0
 24 23  1  1
 24 25  1  0
 25 26  2  3
 26 27  1  0
 27 28  1  0
 28 29  2  0
 29 30  2  0
 30 31  1  0
 31 32  1  6
 31 33  1  0
 33 34  1  0
 34 35  1  6
 34 36  1  0
 36 37  1  0
 37 38  1  6
 38 39  1  0
 39 40  1  1
 39 41  1  0
 41 42  1  1
 42 43  2  0
 43 44  1  0
 44 45  1  0
 39 46  1  0
 46 47  1  0
 47 48  1  0
 48 49  2  3
 49 50  1  0
 50 51  1  0
 51 52  1  6
 51 53  1  0
 53 54  2  0
 54 55  1  0
 11  4  1  0
 33 20  1  6
 37 24  1  0
 41 28  1  0
 43 30  1  0
 55 53  1  0
M  RAD  3   5   2  11   2  40   3
M  END
>  <fragInfo>  (1) 
17 18 19 20 21 22 23 24 25 26 27 28 29 30 31 32 33 34 35 36 37 38 39 40 41 42 43
1 2
3
4 5 6 7 8 9 10 11
12 13
14
15 16
44 45
46
47
48 49
50
51 52
53 54 55


>  <torsionInfo>  (1) 
15 17 6 0
39 46 0 8
43 44 0 7
2 3 1 2
3 4 2 3
11 12 3 4
13 14 4 5
14 15 5 6
46 47 8 9
47 48 9 10
49 50 10 11
50 51 11 12
51 53 12 13


>  <atomInfo>  (1) 
1  -0.1030719C 
2  -0.0914345C 
3  -0.0313309C 
4  -0.0243323C 
5  -0.0286186C 
6  -0.0319548C 
7  -0.0596215C 
8  -0.0596215C 
9  -0.0469688C 
10 -0.0424524C 
11 0.00098766C 
12 -0.0810206C 
13 -0.0850388C 
14 -0.0051488C 
15 0.07604921C 
16 -0.3887026OA
17 -0.0526878C 
18 -0.0497524C 
19 -0.0629129C 
20 -0.0789561C 
21 -0.0280095C 
22 -0.0463997C 
23 -0.0214474C 
24 0.08831696C 
25 -0.2836348NA
26 0.00474290C 
27 0.01157934C 
28 -0.0152171C 
29 -0.1166002C 
30 0.00031776C 
31 -0.0035988C 
32 -0.0571675C 
33 0.00018721C 
34 0.01954822C 
35 -0.0483331C 
36 -0.2780709NA
37 -0.1782876S 
38 -0.0047727C 
39 -0.0067883C 
40 -0.0266061C 
41 0.01298354C 
42 -0.0719829C 
43 -0.0404035C 
44 -0.0301378C 
45 -0.0612725C 
46 -0.0421583C 
47 -0.0344709C 
48 -0.0884934C 
49 -0.0878220C 
50 -0.0252658C 
51 0.02088519C 
52 -0.0549553C 
53 0.14138623C 
54 0.12928161C 
55 -0.4622926OA


$$$$
