
     RDKit          3D

 89 94  0  0  0  0  0  0  0  0999 V2000
   -0.2100   -0.8057   -1.3188 C   0  0  1  0  0  0  0  0  0  0  0  0
   -0.9771   -1.5236   -2.3937 C   0  0  2  0  0  0  0  0  0  0  0  0
   -0.5282   -1.0381   -3.7290 C   0  0  0  0  0  0  0  0  0  0  0  0
   -2.4522   -1.5267   -2.1920 C   0  0  0  0  0  0  0  0  0  0  0  0
   -3.1062   -2.4319   -3.1840 C   0  0  0  0  0  0  0  0  0  0  0  0
   -2.6871   -2.1536   -4.6039 C   0  0  0  0  0  0  0  0  0  0  0  0
   -3.3714   -0.9648   -5.2065 C   0  0  1  0  0  0  0  0  0  0  0  0
   -2.5607   -0.4523   -6.3914 C   0  0  0  0  0  0  0  0  0  0  0  0
   -4.7565   -1.2425   -5.6966 C   0  0  0  0  0  3  0  0  0  0  0  0
   -5.5878   -2.0601   -4.7621 C   0  0  0  0  0  0  0  0  0  0  0  0
   -6.5657   -1.2418   -3.9630 C   0  0  0  0  0  0  0  0  0  0  0  0
   -6.5432    0.2247   -4.3529 C   0  0  0  0  0  3  0  0  0  0  0  0
   -6.5715    1.1023   -3.1030 C   0  0  0  0  0  2  0  0  0  0  0  0
   -7.9761    1.3364   -2.6152 C   0  0  0  0  0  3  0  0  0  0  0  0
   -8.2490    0.6052   -1.3043 C   0  0  0  0  0  0  0  0  0  0  0  0
   -6.9253    0.2433   -0.6245 C   0  0  0  0  0  3  0  0  0  0  0  0
   -6.8762    0.8258    0.7712 C   0  0  0  0  0  0  0  0  0  0  0  0
   -5.4847    1.3095    1.0917 C   0  0  2  0  0  0  0  0  0  0  0  0
   -4.6137    0.1591    1.2240 N   0  0  0  0  0  0  0  0  0  0  0  0
   -5.4937    2.1546    2.3449 C   0  0  0  0  0  0  0  0  0  0  0  0
   -4.1024    2.1628    2.9298 C   0  0  0  0  0  0  0  0  0  0  0  0
   -3.4546    3.5164    2.8898 C   0  0  0  0  0  0  0  0  0  0  0  0
   -4.1542    4.4924    3.8240 C   0  0  0  0  0  0  0  0  0  0  0  0
   -5.6404    4.2153    3.7260 C   0  0  0  0  0  0  0  0  0  0  0  0
   -6.1879    5.2106    2.8959 O   0  0  0  0  0  0  0  0  0  0  0  0
   -7.5588    5.2959    3.1256 C   0  0  0  0  0  0  0  0  0  0  0  0
   -8.3104    4.1885    2.4234 C   0  0  0  0  0  0  0  0  0  0  0  0
   -7.8332    4.0374    0.9812 C   0  0  0  0  0  0  0  0  0  0  0  0
   -6.3412    3.9768    0.9323 C   0  0  0  0  0  0  0  0  0  0  0  0
   -5.8085    3.3577   -0.3273 C   0  0  0  0  0  0  0  0  0  0  0  0
   -4.9972    2.1306   -0.0739 C   0  0  1  0  0  0  0  0  0  0  0  0
   -3.5258    2.4638    0.1963 C   0  0  0  0  0  3  0  0  0  0  0  0
   -2.7120    1.4314   -0.5354 C   0  0  0  0  0  0  0  0  0  0  0  0
   -1.3426    1.2391    0.0197 C   0  0  0  0  0  0  0  0  0  0  0  0
   -1.1685    0.0144    0.8505 C   0  0  1  0  0  0  0  0  0  0  0  0
   -0.6631   -1.1745    0.0701 C   0  0  2  0  0  0  0  0  0  0  0  0
    0.3820   -1.8638    0.8822 C   0  0  0  0  0  3  0  0  0  0  0  0
    0.1804   -3.3338    1.0162 C   0  0  2  0  0  0  0  0  0  0  0  0
    1.4052   -4.0732    1.4275 C   0  0  2  0  0  0  0  0  0  0  0  0
    1.0192   -5.4692    1.8245 C   0  0  1  0  0  0  0  0  0  0  0  0
    0.6346   -5.5901    3.2593 C   0  0  1  0  0  0  0  0  0  0  0  0
   -0.5491   -4.7201    3.6245 C   0  0  0  0  0  3  0  0  0  0  0  0
   -0.9264   -4.8479    5.0622 C   0  0  0  0  0  3  0  0  0  0  0  0
   -0.2915   -6.0126    5.7631 C   0  0  0  0  0  0  0  0  0  0  0  0
    0.5223   -6.9940    3.7460 C   0  0  0  0  0  2  0  0  0  0  0  0
   -0.2212    0.3563    1.9957 C   0  0  0  0  0  0  0  0  0  0  0  0
    0.7364    1.4164    1.4920 C   0  0  0  0  0  3  0  0  0  0  0  0
    0.1797    2.8064    1.6506 C   0  0  0  0  0  3  0  0  0  0  0  0
    0.5782    3.7258    0.5264 C   0  0  0  0  0  0  0  0  0  0  0  0
    1.4856    3.0594   -0.4786 C   0  0  0  0  0  0  0  0  0  0  0  0
    2.8099    3.7710   -0.6138 C   0  0  0  0  0  3  0  0  0  0  0  0
    2.7173    4.8820   -1.6585 C   0  0  0  0  0  3  0  0  0  0  0  0
    4.1155    5.3882   -1.9269 C   0  0  0  0  0  3  0  0  0  0  0  0
    4.5910    6.1859   -0.7242 C   0  0  1  0  0  0  0  0  0  0  0  0
    4.6255    5.2140    0.4566 C   0  0  0  0  0  2  0  0  0  0  0  0
    5.9940    6.6636   -0.9384 C   0  0  0  0  0  3  0  0  0  0  0  0
    6.9702    5.5326   -1.1846 C   0  0  0  0  0  3  0  0  0  0  0  0
    7.9344    5.4263   -0.0319 C   0  0  0  0  0  3  0  0  0  0  0  0
    8.5968    4.0652    0.0130 C   0  0  2  0  0  0  0  0  0  0  0  0
    9.1491    3.8066   -1.3815 C   0  0  0  0  0  2  0  0  0  0  0  0
    7.5152    3.0470    0.3417 C   0  0  0  0  0  0  0  0  0  0  0  0
    6.6860    2.8443   -0.9210 C   0  0  0  0  0  0  0  0  0  0  0  0
    5.9066    1.5614   -0.7306 C   0  0  0  0  0  0  0  0  0  0  0  0
    6.6827    0.4614   -1.4627 C   0  0  0  0  0  0  0  0  0  0  0  0
    7.0634   -0.6133   -0.4472 C   0  0  1  0  0  0  0  0  0  0  0  0
    5.8563   -0.7636    0.4711 C   0  0  0  0  0  3  0  0  0  0  0  0
    6.2453   -0.3953    1.8899 C   0  0  0  0  0  0  0  0  0  0  0  0
    6.0998   -1.6377    2.7483 C   0  0  0  0  0  3  0  0  0  0  0  0
    4.6838   -2.0040    2.9640 C   0  0  0  0  0  0  0  0  0  0  0  0
    3.7715   -1.6185    2.0612 C   0  0  0  0  0  0  0  0  0  0  0  0
    2.3289   -1.9711    2.2466 C   0  0  0  0  0  0  0  0  0  0  0  0
    2.1485   -3.4380    2.5761 C   0  0  2  0  0  0  0  0  0  0  0  0
    3.5413   -4.0629    2.6129 C   0  0  0  0  0  0  0  0  0  0  0  0
    3.4900   -5.5494    2.8158 C   0  0  0  0  0  2  0  0  0  0  0  0
    7.3220   -1.9122   -1.1729 C   0  0  0  0  0  0  0  0  0  0  0  0
    6.1140   -2.4608   -1.8604 C   0  0  1  0  0  0  0  0  0  0  0  0
    6.0295   -3.9641   -1.8263 C   0  0  0  0  0  2  0  0  0  0  0  0
    4.8351   -1.7904   -1.4327 C   0  0  0  0  0  3  0  0  0  0  0  0
    4.3253   -1.0001   -2.6289 C   0  0  0  0  0  0  0  0  0  0  0  0
    3.2289   -0.0347   -2.2222 C   0  0  0  0  0  3  0  0  0  0  0  0
    1.8902   -0.6202   -2.6732 C   0  0  0  0  0  3  0  0  0  0  0  0
    1.2426   -1.2161   -1.4465 C   0  0  2  0  0  0  0  0  0  0  0  0
    1.4059   -2.7153   -1.3873 C   0  0  0  0  0  3  0  0  0  0  0  0
    0.0923   -3.4496   -1.4905 C   0  0  0  0  0  3  0  0  0  0  0  0
   -0.3975   -3.9864   -0.2035 C   0  0  2  0  0  0  0  0  0  0  0  0
   -1.8692   -4.1648   -0.0924 C   0  0  0  0  0  3  0  0  0  0  0  0
   -2.1611   -4.8450    1.2291 C   0  0  0  0  0  3  0  0  0  0  0  0
   -1.3824   -6.0985    1.4367 C   0  0  0  0  0  3  0  0  0  0  0  0
    0.0026   -6.0756    0.8844 C   0  0  0  0  0  3  0  0  0  0  0  0
  1  2  1  6
  2  3  1  6
  2  4  1  0
  4  5  1  0
  5  6  1  0
  6  7  1  0
  7  8  1  6
  7  9  1  0
  9 10  1  0
 10 11  1  0
 11 12  1  0
 12 13  1  0
 13 14  1  0
 14 15  1  0
 15 16  1  0
 16 17  1  0
 17 18  1  0
 18 19  1  1
 18 20  1  0
 20 21  1  0
 21 22  1  0
 22 23  1  0
 23 24  1  0
 24 25  1  0
 25 26  1  0
 26 27  1  0
 27 28  1  0
 28 29  1  0
 29 30  1  0
 31 30  1  1
 31 32  1  0
 32 33  1  0
 33 34  1  0
 35 34  1  6
 35 36  1  0
 36 37  1  1
 38 37  1  6
 38 39  1  0
 39 40  1  0
 40 41  1  0
 41 42  1  0
 42 43  1  0
 43 44  1  0
 41 45  1  6
 35 46  1  0
 46 47  1  0
 47 48  1  0
 48 49  1  0
 49 50  1  0
 50 51  1  0
 51 52  1  0
 52 53  1  0
 53 54  1  0
 54 55  1  1
 54 56  1  0
 56 57  1  0
 57 58  1  0
 58 59  1  0
 59 60  1  6
 59 61  1  0
 61 62  1  0
 62 63  1  0
 63 64  1  0
 65 64  1  6
 65 66  1  0
 66 67  1  0
 67 68  1  0
 68 69  1  0
 69 70  2  3
 70 71  1  0
 71 72  1  0
 72 73  1  6
 73 74  1  0
 65 75  1  0
 75 76  1  0
 76 77  1  1
 76 78  1  0
 78 79  1  0
 79 80  1  0
 80 81  1  0
 81 82  1  0
 82 83  1  6
 83 84  1  0
 84 85  1  0
 85 86  1  6
 86 87  1  0
 87 88  1  0
 88 89  1  0
 36  1  1  0
 82  1  1  0
 31 18  1  0
 85 38  1  0
 39 72  1  1
 40 89  1  6
M  RAD  8   9   2  12   2  13   3  14   2  16   2  32   2  37   2  42   2
M  RAD  8  43   2  45   3  47   2  48   2  51   2  52   2  53   2  55   3
M  RAD  8  56   2  57   2  58   2  60   3  66   2  68   2  74   3  77   3
M  RAD  8  78   2  80   2  81   2  83   2  84   2  86   2  87   2  88   2
M  RAD  1  89   2
M  END
>  <fragInfo>  (1) 
1 2 3 4 5 6 7 8 9 10 11 12 13 14 15 16 17 18 19 20 21 22 23 24 25 26 27 28 29 30 31 32 33 34 35 36 37 38 39 40 46 47 48 49 50 51 52 53 54 55 56 57 58 59 60 61 62 63 64 65 66 67 68 69 70 71 72 75 76 77 78 79 80 81 82 83 84 85 86 87 88 89
41 45
42
43 44
73 74


>  <torsionInfo>  (1) 
40 41 0 1
72 73 0 4
41 42 1 2
42 43 2 3


>  <atomInfo>  (1) 
1  -0.0320417C 
2  -0.0408639C 
3  -0.0622234C 
4  -0.0504154C 
5  -0.0527776C 
6  -0.0504262C 
7  -0.0411603C 
8  -0.0622342C 
9  -0.0357397C 
10 -0.0496225C 
11 -0.0492930C 
12 -0.0308875C 
13 -0.0099660C 
14 -0.0306133C 
15 -0.0463852C 
16 -0.0364548C 
17 -0.0316762C 
18 0.01879035C 
19 -0.3248009NA
20 -0.0347922C 
21 -0.0514635C 
22 -0.0510459C 
23 -0.0296024C 
24 0.04655340C 
25 -0.3814524OA
26 0.04655339C 
27 -0.0296034C 
28 -0.0511027C 
29 -0.0528790C 
30 -0.0484167C 
31 -0.0201773C 
32 -0.0336482C 
33 -0.0495633C 
34 -0.0498657C 
35 -0.0377193C 
36 -0.0317782C 
37 -0.0312086C 
38 -0.0311968C 
39 -0.0314515C 
40 -0.0311968C 
41 -0.0312081C 
42 -0.0317773C 
43 -0.0379981C 
44 -0.0619577C 
45 -0.0311868C 
46 -0.0467539C 
47 -0.0349079C 
48 -0.0351709C 
49 -0.0496124C 
50 -0.0496018C 
51 -0.0348745C 
52 -0.0314933C 
53 -0.0311976C 
54 -0.0311866C 
55 -0.0311864C 
56 -0.0311866C 
57 -0.0311974C 
58 -0.0314827C 
59 -0.0345998C 
60 -0.0314937C 
61 -0.0498755C 
62 -0.0530107C 
63 -0.0530211C 
64 -0.0501615C 
65 -0.0380037C 
66 -0.0348640C 
67 -0.0430009C 
68 -0.0167569C 
69 -0.0848128C 
70 -0.0879519C 
71 -0.0319147C 
72 -0.0342645C 
73 -0.0464578C 
74 -0.0348859C 
75 -0.0467537C 
76 -0.0346117C 
77 -0.0314940C 
78 -0.0348760C 
79 -0.0464781C 
80 -0.0345905C 
81 -0.0314831C 
82 -0.0312290C 
83 -0.0311872C 
84 -0.0311864C 
85 -0.0311866C 
86 -0.0311864C 
87 -0.0311864C 
88 -0.0311864C 
89 -0.0311866C 


$$$$
