
     RDKit          3D

  9  8  0  0  0  0  0  0  0  0999 V2000
    4.0681   -0.9825    0.0776 C   0  0  0  0  0  0  0  0  0  0  0  0
    2.8694   -0.0785    0.1645 C   0  0  0  0  0  0  0  0  0  0  0  0
    1.7998   -0.4081   -0.8367 C   0  0  0  0  0  0  0  0  0  0  0  0
    0.6601    0.5462   -0.6650 C   0  0  0  0  0  0  0  0  0  0  0  0
    0.0531    0.4738    0.7186 C   0  0  0  0  0  0  0  0  0  0  0  0
   -1.0839    1.5055    0.7142 C   0  0  0  0  0  0  0  0  0  0  0  0
   -2.2241    0.9523   -0.6135 S   0  0  0  0  0  0  0  0  0  0  0  0
   -2.9087   -0.6076   -0.0613 C   0  0  0  0  0  0  0  0  0  0  0  0
   -3.2337   -1.4010   -0.9273 O   0  0  0  0  0  0  0  0  0  0  0  0
  1  2  1  0
  2  3  1  0
  3  4  1  0
  4  5  1  0
  5  6  1  0
  6  7  1  0
  7  8  1  0
  8  9  2  0
M  END
>  <fragInfo>  (1) 
1 2
3
4
5
6
7
8 9


>  <torsionInfo>  (1) 
2 3 0 1
3 4 1 2
4 5 2 3
5 6 3 4
6 7 4 5
7 8 5 6


>  <atomInfo>  (1) 
1  -0.0653823C 
2  -0.0561711C 
3  -0.0535391C 
4  -0.0525168C 
5  -0.0437099C 
6  0.00053411C 
7  -0.0917106SA
8  0.17570473C 
9  -0.2909524OA


$$$$
