
     RDKit          3D

 35 34  0  0  0  0  0  0  0  0999 V2000
   -9.7869    0.3241   -0.0035 O   0  0  0  0  0  0  0  0  0  0  0  0
  -10.0070   -0.2187    1.1074 C   0  0  0  0  0  0  0  0  0  0  0  0
  -10.4693    0.5694    2.1455 O   0  0  0  0  0  0  0  0  0  0  0  0
   -9.7724   -1.6560    1.2774 C   0  0  0  0  0  0  0  0  0  0  0  0
   -9.2664   -2.3204    0.0319 C   0  0  0  0  0  0  0  0  0  0  0  0
   -7.9943   -1.7918   -0.4636 C   0  0  0  0  0  0  0  0  0  0  0  0
   -7.2837   -0.8292    0.0656 C   0  0  0  0  0  0  0  0  0  0  0  0
   -6.0380   -0.4439   -0.5794 C   0  0  0  0  0  0  0  0  0  0  0  0
   -5.3941   -1.4111   -2.3216 I   0  0  0  0  0  0  0  0  0  0  0  0
   -5.3363    0.5266   -0.0328 C   0  0  0  0  0  0  0  0  0  0  0  0
   -5.7504    1.1771    1.1221 O   0  0  0  0  0  0  0  0  0  0  0  0
   -5.8245    2.5706    1.2530 C   0  0  0  0  0  0  0  0  0  0  0  0
   -4.0534    0.9292   -0.6900 C   0  0  0  0  0  0  0  0  0  0  0  0
   -4.1524    2.3658   -1.0760 C   0  0  0  0  0  0  0  0  0  0  0  0
   -3.2885    3.2300   -0.5710 C   0  0  0  0  0  0  0  0  0  0  0  0
   -2.2051    2.8821    0.3681 C   0  0  0  0  0  0  0  0  0  0  0  0
   -2.1528    1.4574    0.7140 C   0  0  0  0  0  0  0  0  0  0  0  0
   -1.1508    0.6539    0.5038 C   0  0  0  0  0  0  0  0  0  0  0  0
    0.1025    1.0581   -0.1228 C   0  0  0  0  0  0  0  0  0  0  0  0
    1.1039    0.2470   -0.3308 C   0  0  0  0  0  0  0  0  0  0  0  0
    2.3319    0.7485   -0.9720 C   0  0  2  0  0  0  0  0  0  0  0  0
    2.3906    2.1378   -0.7962 O   0  0  0  0  0  0  0  0  0  0  0  0
    2.2285    0.4107   -2.8884 Br  0  0  0  0  0  0  0  0  0  0  0  0
    3.8377    0.0428   -0.2617 S   0  0  0  0  0  0  0  0  0  0  0  0
    4.3216   -1.4992   -0.5892 C   0  0  0  0  0  0  0  0  0  0  0  0
    5.5200   -1.9691    0.0149 N   0  0  0  0  0  3  0  0  0  0  0  0
    6.6562   -1.3428   -0.1678 C   0  0  0  0  0  0  0  0  0  0  0  0
    8.0889   -2.0329    0.6450 S   0  0  0  0  0  0  0  0  0  0  0  0
    9.4470   -2.0392   -0.5074 C   0  0  0  0  0  0  0  0  0  0  0  0
   10.5291   -1.3038   -0.4248 C   0  0  0  0  0  0  0  0  0  0  0  0
   10.7835   -0.3351    0.6705 C   0  0  2  0  0  0  0  0  0  0  0  0
    8.9119    0.4810    1.2840 I   0  0  0  0  0  0  0  0  0  0  0  0
   11.6106    0.7975    0.0910 C   0  0  0  0  0  0  0  0  0  0  0  0
   11.5268   -0.9779    1.8227 C   0  0  0  0  0  0  0  0  0  0  0  0
   10.5352   -2.4382    2.5721 Br  0  0  0  0  0  0  0  0  0  0  0  0
  1  2  2  0
  2  3  1  0
  2  4  1  0
  4  5  1  0
  5  6  1  0
  6  7  2  3
  7  8  1  0
  8  9  1  0
  8 10  2  3
 10 11  1  0
 11 12  1  0
 10 13  1  0
 13 14  1  0
 14 15  2  3
 15 16  1  0
 16 17  1  0
 17 18  2  3
 18 19  1  0
 19 20  2  3
 20 21  1  0
 21 22  1  6
 21 23  1  0
 21 24  1  0
 24 25  2  3
 25 26  1  0
 26 27  2  3
 27 28  1  0
 28 29  1  0
 29 30  2  3
 30 31  1  0
 31 32  1  0
 31 33  1  6
 31 34  1  0
 34 35  1  0
M  CHG  1  26   1
M  RAD  1  26   2
M  END
>  <fragInfo>  (1) 
1 2 3
4
5
6 7
8 9 10
11 12
13
14 15
16
17 18
19 20
21 22 23
24 25
26 27
28
29 30
31 32 33
34 35


>  <torsionInfo>  (1) 
2 4 0 1
4 5 1 2
5 6 2 3
7 8 3 4
10 11 4 5
10 13 4 6
13 14 6 7
15 16 7 8
16 17 8 9
18 19 9 10
20 21 10 11
21 24 11 12
25 26 12 13
27 28 13 14
28 29 14 15
30 31 15 16
31 34 16 17


>  <atomInfo>  (1) 
1  -0.2524726OA
2  0.30315514C 
3  -0.4812221OA
4  0.04878145C 
5  -0.0242116C 
6  -0.0827838C 
7  -0.0494169C 
8  0.05073163C 
9  -0.0406383I 
10 0.11253528C 
11 -0.4996725OA
12 0.07708601C 
13 0.02412178C 
14 -0.0806897C 
15 -0.0842914C 
16 -0.0165923C 
17 -0.0807589C 
18 -0.0661006C 
19 -0.0616859C 
20 -0.0289618C 
21 0.19379879C 
22 -0.3645700OA
23 -0.0336448Br
24 -0.1469250S 
25 0.28158474C 
26 0.07130619N 
27 0.28053350C 
28 -0.0304040SA
29 -0.0214184C 
30 -0.0612253C 
31 0.04770788C 
32 -0.0736731I 
33 -0.0461352C 
34 0.02108149C 
35 -0.0910283Br


$$$$
