
     RDKit          3D

 15 15  0  0  0  0  0  0  0  0999 V2000
   -0.9571   -2.2652   -0.1670 C   0  0  0  0  0  0  0  0  0  0  0  0
   -0.6286   -0.9632   -0.8937 C   0  0  1  0  0  0  0  0  0  0  0  0
   -1.8547   -0.4245   -1.5298 C   0  0  0  0  0  0  0  0  0  0  0  0
   -2.6478    0.4335   -0.5699 C   0  0  2  0  0  0  0  0  0  0  0  0
   -3.8307    0.8798   -1.1027 O   0  0  0  0  0  0  0  0  0  0  0  0
   -1.7125    1.5314   -0.1026 C   0  0  2  0  0  0  0  0  0  0  0  0
   -1.0157    2.0153   -1.2132 O   0  0  0  0  0  0  0  0  0  0  0  0
   -0.7057    0.8697    0.8094 C   0  0  1  0  0  0  0  0  0  0  0  0
   -1.4621    0.0472    1.6647 O   0  0  0  0  0  0  0  0  0  0  0  0
    0.1643   -0.0027   -0.0644 C   0  0  1  0  0  0  0  0  0  0  0  0
    1.0384   -0.7997    0.7856 N   0  0  0  0  0  0  0  0  0  0  0  0
    1.9660   -1.5331   -0.0340 C   0  0  0  0  0  3  0  0  0  0  0  0
    3.3037   -0.9201   -0.0250 C   0  0  0  0  0  0  0  0  0  0  0  0
    3.5226    0.3143   -0.4019 C   0  0  0  0  0  0  0  0  0  0  0  0
    4.8201    0.8173   -0.3622 O   0  0  0  0  0  0  0  0  0  0  0  0
  2  1  1  1
  2  3  1  0
  3  4  1  0
  4  5  1  6
  4  6  1  0
  6  7  1  6
  6  8  1  0
  8  9  1  1
  8 10  1  0
 10 11  1  1
 11 12  1  0
 12 13  1  0
 13 14  2  3
 14 15  1  0
 10  2  1  0
M  RAD  1  12   2
M  END
>  <fragInfo>  (1) 
1 2 3 4 5 6 7 8 9 10
11
12
13 14 15


>  <torsionInfo>  (1) 
10 11 0 1
11 12 1 2
12 13 2 3


>  <atomInfo>  (1) 
1  -0.0608231C 
2  -0.0236189C 
3  -0.0201753C 
4  0.08280077C 
5  -0.3903155OA
6  0.10722539C 
7  -0.3876533OA
8  0.09793871C 
9  -0.3886789OA
10 0.03867080C 
11 -0.3029918NA
12 0.04782514C 
13 -0.0312828C 
14 0.07675730C 
15 -0.5158683OA


$$$$
