
     RDKit          3D

 31 32  0  0  0  0  0  0  0  0999 V2000
    3.2837   -0.1600    0.3752 C   0  0  0  0  0  0  0  0  0  0  0  0
    3.9798   -0.5832    1.6714 C   0  0  0  0  0  3  0  0  0  0  0  0
    5.2527   -1.2558    1.2879 C   0  0  0  0  0  0  0  0  0  0  0  0
    6.4572   -0.5251    1.8269 C   0  0  2  0  0  0  0  0  0  0  0  0
    6.6064   -0.8239    3.1887 O   0  0  0  0  0  0  0  0  0  0  0  0
    6.3462    0.8454    1.6159 O   0  0  0  0  0  0  0  0  0  0  0  0
    5.4360    1.0762    0.5527 C   0  0  0  0  0  3  0  0  0  0  0  0
    5.8049    0.2748   -0.6459 C   0  0  0  0  0  0  0  0  0  0  0  0
    4.7226   -0.0499   -1.4576 O   0  0  0  0  0  0  0  0  0  0  0  0
    3.7594   -0.8976   -0.8110 C   0  0  2  0  0  0  0  0  0  0  0  0
    2.7041   -1.1777   -1.9158 C   0  0  0  0  0  0  0  0  0  0  0  0
    1.5300   -2.0461   -1.2436 C   0  0  0  0  0  0  0  0  0  0  0  0
    0.9675   -0.9713   -0.2675 C   0  0  0  0  0  0  0  0  0  0  0  0
    0.1150    0.0742   -0.8574 C   0  0  1  0  0  0  0  0  0  0  0  0
   -0.3112    1.2775   -0.1388 C   0  0  0  0  0  2  0  0  0  0  0  0
    0.5770    0.3524   -2.2708 C   0  0  0  0  0  0  0  0  0  0  0  0
    1.2498    1.6745   -2.3436 C   0  0  0  0  0  0  0  0  0  0  0  0
    1.6883    2.2175   -1.0307 C   0  0  0  0  0  3  0  0  0  0  0  0
    0.8801    2.0863    0.0580 O   0  0  0  0  0  0  0  0  0  0  0  0
   -1.2970   -0.6310   -1.1463 C   0  0  0  0  0  0  0  0  0  0  0  0
   -2.1839    0.4248   -1.5647 O   0  0  0  0  0  0  0  0  0  0  0  0
   -2.5840    0.8818   -0.2084 C   0  0  0  0  0  3  0  0  0  0  0  0
   -4.0056    0.1060   -0.1042 C   0  0  0  0  0  0  0  0  0  0  0  0
   -4.0373   -0.5028   -1.3723 O   0  0  0  0  0  0  0  0  0  0  0  0
   -5.1705   -0.1601   -1.9669 O   0  0  0  0  0  0  0  0  0  0  0  0
   -6.4725    0.2508   -1.0350 S   0  0  0  0  0  0  0  0  0  0  0  0
   -6.0766    0.0898    0.7284 C   0  0  0  0  0  3  0  0  0  0  0  0
   -7.2880   -0.4165    1.4379 C   0  0  0  0  0  3  0  0  0  0  0  0
   -8.4445    0.2359    1.1312 O   0  0  0  0  0  0  0  0  0  0  0  0
   -7.0478   -0.7638    2.8185 C   0  0  0  0  0  0  0  0  0  0  0  0
   -6.4418    0.0850    3.6880 C   0  0  0  0  0  3  0  0  0  0  0  0
  1  2  1  0
  2  3  1  0
  3  4  1  0
  4  5  1  1
  4  6  1  0
  6  7  1  0
  7  8  1  0
  8  9  1  0
  9 10  1  0
 10 11  1  6
 11 12  1  0
 12 13  1  0
 14 13  1  1
 14 15  1  0
 14 16  1  0
 16 17  1  0
 17 18  1  0
 18 19  1  0
 14 20  1  0
 20 21  1  0
 21 22  1  0
 22 23  1  0
 23 24  1  0
 24 25  1  0
 25 26  1  0
 26 27  1  0
 27 28  1  0
 28 29  1  0
 28 30  1  0
 30 31  2  0
 10  1  1  0
 19 15  1  0
M  RAD  8   2   2   7   2  15   3  18   2  22   2  27   2  28   2  31   2
M  END
>  <fragInfo>  (1) 
1 2 3 4 5 6 7 8 9 10
11
12
13
14 15 16 17 18 19
20
21
22
23
24
25
26
27
28 29
30 31


>  <torsionInfo>  (1) 
10 11 0 1
11 12 1 2
12 13 2 3
13 14 3 4
14 20 4 5
20 21 5 6
21 22 6 7
22 23 7 8
23 24 8 9
24 25 9 10
25 26 10 11
26 27 11 12
27 28 12 13
28 30 13 14


>  <atomInfo>  (1) 
1  -0.0234262C 
2  -0.0310204C 
3  0.00136403C 
4  0.15493555C 
5  -0.3679668OA
6  -0.3444521OA
7  0.11244527C 
8  0.07599755C 
9  -0.3754064OA
10 0.05788528C 
11 -0.0266970C 
12 -0.0501118C 
13 -0.0422765C 
14 0.02894846C 
15 0.14131951C 
16 -0.0398051C 
17 -0.0234012C 
18 0.08477492C 
19 -0.3620354OA
20 0.05583166C 
21 -0.3721781OA
22 0.11253777C 
23 0.11227510C 
24 -0.2214771OA
25 -0.1628659OA
26 0.03971964SA
27 0.08728308C 
28 0.13185644C 
29 -0.3810403OA
30 -0.0486189C 
31 -0.0634757C 


$$$$
