
     RDKit          3D

 76 80  0  0  0  0  0  0  0  0999 V2000
  -15.3217   -0.6094    1.2775 C   0  0  0  0  0  0  0  0  0  0  0  0
  -13.9549   -0.1492    0.8208 C   0  0  0  0  0  0  0  0  0  0  0  0
  -13.5374    1.0878    1.5875 C   0  0  0  0  0  0  0  0  0  0  0  0
  -13.9389    0.1561   -0.6469 C   0  0  0  0  0  0  0  0  0  0  0  0
  -14.3022   -1.0530   -1.4705 C   0  0  0  0  0  0  0  0  0  0  0  0
  -13.3299   -2.1948   -1.2345 C   0  0  0  0  0  0  0  0  0  0  0  0
  -11.9484   -1.7113   -1.6288 C   0  0  1  0  0  0  0  0  0  0  0  0
  -11.9925   -1.3225   -3.1026 C   0  0  0  0  0  0  0  0  0  0  0  0
  -11.5874   -0.4740   -0.8209 C   0  0  0  0  0  3  0  0  0  0  0  0
  -10.2217    0.0052   -1.2095 C   0  0  0  0  0  0  0  0  0  0  0  0
   -9.1770   -1.0571   -0.9510 C   0  0  0  0  0  0  0  0  0  0  0  0
   -9.1266   -1.4418    0.5118 C   0  0  2  0  0  0  0  0  0  0  0  0
   -8.7849   -0.2008    1.3010 C   0  0  0  0  0  0  0  0  0  0  0  0
   -7.9804   -2.4283    0.6816 C   0  0  0  0  0  3  0  0  0  0  0  0
   -6.6605   -1.7737    0.2574 C   0  0  0  0  0  0  0  0  0  0  0  0
   -6.4402   -0.5720    1.1326 C   0  0  0  0  0  0  0  0  0  0  0  0
   -5.1488    0.1200    0.7621 C   0  0  2  0  0  0  0  0  0  0  0  0
   -4.0176   -0.8633    0.9530 C   0  0  0  0  0  3  0  0  0  0  0  0
   -3.3546   -1.2409   -0.3524 C   0  0  1  0  0  0  0  0  0  0  0  0
   -4.3970   -1.1589   -1.4317 C   0  0  0  0  0  0  0  0  0  0  0  0
   -3.8897   -1.4927   -2.7057 O   0  0  0  0  0  0  0  0  0  0  0  0
   -4.7787   -1.4464   -3.7709 C   0  0  0  0  0  0  0  0  0  0  0  0
   -5.9934   -1.1172   -3.5982 O   0  0  0  0  0  0  0  0  0  0  0  0
   -4.9429    1.5683    1.8490 S   0  0  0  0  0  0  0  0  0  0  0  0
   -6.0774    2.8796    1.3269 C   0  0  0  0  0  0  0  0  0  0  0  0
   -5.5020    3.6607    0.1480 C   0  0  0  0  0  0  0  0  0  0  0  0
   -5.2004    2.7227   -1.0062 C   0  0  1  0  0  0  0  0  0  0  0  0
   -6.4323    2.5531   -1.8789 C   0  0  0  0  0  0  0  0  0  0  0  0
   -4.0252    3.2605   -1.7656 C   0  0  0  0  0  0  0  0  0  0  0  0
   -3.1577    4.0246   -0.7575 C   0  0  0  0  0  3  0  0  0  0  0  0
   -2.1404    2.9638    0.0638 S   0  0  0  0  0  0  0  0  0  0  0  0
   -1.4825    1.9180   -1.2870 C   0  0  0  0  0  3  0  0  0  0  0  0
   -2.5410    0.8515   -1.4697 C   0  0  0  0  0  0  0  0  0  0  0  0
   -2.1953   -0.3126   -0.5779 C   0  0  2  0  0  0  0  0  0  0  0  0
   -0.7093   -1.1759   -1.1235 S   0  0  0  0  0  0  0  0  0  0  0  0
   -1.6101    2.5602    1.4517 C   0  0  2  0  0  0  0  0  0  0  0  0
   -1.0751    3.5409    2.4757 C   0  0  0  0  0  2  0  0  0  0  0  0
   -1.4516    1.1442    1.9270 C   0  0  0  0  0  0  0  0  0  0  0  0
   -0.1046    0.8496    2.5081 C   0  0  0  0  0  3  0  0  0  0  0  0
    0.4932   -0.4391    1.9345 C   0  0  0  0  0  3  0  0  0  0  0  0
    2.2537   -0.3966    2.0451 S   0  0  1  0  0  0  0  0  0  0  0  0
    2.9183   -0.9766    0.6087 C   0  0  1  0  0  0  0  0  0  0  0  0
    1.9553   -1.3407   -0.4756 C   0  0  1  0  0  0  0  0  0  0  0  0
    1.4140   -2.7510   -0.2143 C   0  0  0  0  0  0  0  0  0  0  0  0
    0.8073   -0.3547   -0.6018 C   0  0  1  0  0  0  0  0  0  0  0  0
    1.1711    0.7939   -1.5213 C   0  0  0  0  0  0  0  0  0  0  0  0
    2.1500    1.7403   -0.8664 C   0  0  0  0  0  3  0  0  0  0  0  0
    1.5196    2.6577    0.1270 C   0  0  0  0  0  3  0  0  0  0  0  0
    2.4050    3.0542    1.2598 C   0  0  0  0  0  0  0  0  0  0  0  0
    2.1621    2.2456    2.5126 C   0  0  0  0  0  3  0  0  0  0  0  0
    3.0213    1.0234    2.5883 C   0  0  1  0  0  0  0  0  0  0  0  0
    3.7284    0.8893    3.9161 C   0  0  0  0  0  3  0  0  0  0  0  0
    4.9942    0.0682    3.6471 C   0  0  0  0  0  0  0  0  0  0  0  0
    4.8002   -0.7812    2.3910 C   0  0  0  0  0  0  0  0  0  0  0  0
    4.9783    0.1767    1.2111 C   0  0  0  0  0  3  0  0  0  0  0  0
    4.0725   -0.2055    0.0659 C   0  0  1  0  0  0  0  0  0  0  0  0
    4.8333   -0.9062   -1.0076 C   0  0  0  0  0  0  0  0  0  0  0  0
    5.9685   -0.0182   -1.4648 C   0  0  0  0  0  0  0  0  0  0  0  0
    6.8693    0.2647   -0.3071 C   0  0  1  0  0  0  0  0  0  0  0  0
    7.4851   -0.9452    0.3115 C   0  0  0  0  0  0  0  0  0  0  0  0
    8.6452   -1.5083   -0.4403 C   0  0  0  0  0  3  0  0  0  0  0  0
    9.5565   -2.2045    0.5628 C   0  0  0  0  0  0  0  0  0  0  0  0
   10.6153   -1.2013    0.9703 C   0  0  1  0  0  0  0  0  0  0  0  0
   11.1600   -0.6896   -0.2150 O   0  0  0  0  0  0  0  0  0  0  0  0
   12.3721    0.4584    0.0708 S   0  0  0  0  0  0  0  0  0  0  0  0
   13.5573    0.4088   -1.2975 C   0  0  0  0  0  3  0  0  0  0  0  0
   13.1335   -0.6371   -2.3036 C   0  0  0  0  0  0  0  0  0  0  0  0
   13.7416   -1.9874   -1.9708 C   0  0  0  0  0  3  0  0  0  0  0  0
   15.2414   -1.8820   -1.9881 C   0  0  0  0  0  3  0  0  0  0  0  0
   15.7387   -0.4965   -2.2801 C   0  0  0  0  0  3  0  0  0  0  0  0
   16.5749    0.1735   -0.8345 S   0  0  0  0  0  0  0  0  0  0  0  0
    7.9426    1.2622   -0.6126 C   0  0  0  0  0  3  0  0  0  0  0  0
    9.3197    0.7702   -0.3069 C   0  0  0  0  0  3  0  0  0  0  0  0
    9.7990    1.1620    1.0729 C   0  0  0  0  0  3  0  0  0  0  0  0
   10.0558   -0.1095    1.8515 C   0  0  2  0  0  0  0  0  0  0  0  0
   11.0778    0.1781    3.3160 S   0  0  0  0  0  0  0  0  0  0  0  0
  1  2  1  0
  2  3  1  0
  2  4  1  0
  4  5  1  0
  5  6  1  0
  6  7  1  0
  7  8  1  6
  7  9  1  0
  9 10  1  0
 10 11  1  0
 11 12  1  0
 12 13  1  1
 12 14  1  0
 14 15  1  0
 15 16  1  0
 17 16  1  1
 17 18  1  0
 18 19  1  0
 19 20  1  6
 20 21  1  0
 21 22  1  0
 22 23  2  0
 17 24  1  0
 24 25  1  0
 25 26  1  0
 26 27  1  0
 27 28  1  6
 27 29  1  0
 29 30  1  0
 30 31  1  0
 31 32  1  0
 32 33  1  0
 33 34  1  0
 34 35  1  6
 31 36  1  0
 36 37  1  6
 36 38  1  0
 38 39  1  0
 39 40  1  0
 41 40  1  6
 41 42  1  0
 42 43  1  0
 43 44  1  1
 43 45  1  0
 45 46  1  6
 46 47  1  0
 47 48  1  0
 48 49  1  0
 49 50  1  0
 51 50  1  1
 51 52  1  0
 52 53  1  0
 53 54  1  0
 54 55  1  0
 55 56  1  0
 56 57  1  6
 57 58  1  0
 59 58  1  6
 59 60  1  0
 60 61  1  0
 61 62  1  0
 62 63  1  0
 63 64  1  6
 64 65  1  0
 65 66  1  0
 66 67  1  0
 67 68  1  0
 68 69  1  0
 69 70  1  0
 70 71  1  0
 59 72  1  0
 72 73  1  0
 73 74  1  0
 74 75  1  0
 75 76  1  1
 34 19  1  0
 45 35  1  0
 51 41  1  0
 42 56  1  6
 75 63  1  0
M  RAD  8   9   2  14   2  18   2  30   2  32   2  37   3  39   2  40   2
M  RAD  8  47   2  48   2  50   2  52   2  55   2  61   2  66   2  68   2
M  RAD  5  69   2  70   2  72   2  73   2  74   2
M  END
>  <fragInfo>  (1) 
17 18 19 24 25 26 27 28 29 30 31 32 33 34 35 36 37 38 39 40 41 42 43 44 45 46 47 48 49 50 51 52 53 54 55 56
1 2 3
4
5
6
7 8
9
10
11
12 13
14
15
16
20
21
22 23
57
58
59 60 61 62 63 72 73 74 75 76
64
65
66
67
68
69
70 71


>  <torsionInfo>  (1) 
16 17 12 0
19 20 0 13
56 57 0 16
2 4 1 2
4 5 2 3
5 6 3 4
6 7 4 5
7 9 5 6
9 10 6 7
10 11 7 8
11 12 8 9
12 14 9 10
14 15 10 11
15 16 11 12
20 21 13 14
21 22 14 15
57 58 16 17
58 59 17 18
63 64 18 19
64 65 19 20
65 66 20 21
66 67 21 22
67 68 22 23
68 69 23 24
69 70 24 25


>  <atomInfo>  (1) 
1  -0.0627736C 
2  -0.0471324C 
3  -0.0627736C 
4  -0.0509643C 
5  -0.0527983C 
6  -0.0504266C 
7  -0.0411603C 
8  -0.0622342C 
9  -0.0357403C 
10 -0.0496542C 
11 -0.0501522C 
12 -0.0411495C 
13 -0.0622340C 
14 -0.0357099C 
15 -0.0488537C 
16 -0.0407084C 
17 0.00828764C 
18 -0.0179852C 
19 0.00923324C 
20 0.09518354C 
21 -0.4675494OA
22 0.29258654C 
23 -0.2561386OA
24 -0.1582611SA
25 -0.0062099C 
26 -0.0415097C 
27 -0.0424665C 
28 -0.0624407C 
29 -0.0393063C 
30 -0.0025926C 
31 -0.2426654S 
32 -0.0017507C 
33 -0.0295016C 
34 0.01240983C 
35 -0.1543583SA
36 -0.0093422C 
37 -0.0228022C 
38 -0.0384482C 
39 -0.0251823C 
40 0.00059673C 
41 -0.2425980S 
42 -0.0063952C 
43 -0.0217024C 
44 -0.0604408C 
45 0.00884184C 
46 -0.0375716C 
47 -0.0340776C 
48 -0.0348265C 
49 -0.0457298C 
50 -0.0266920C 
51 -0.0068441C 
52 -0.0269757C 
53 -0.0488533C 
54 -0.0495543C 
55 -0.0344237C 
56 -0.0276843C 
57 -0.0488923C 
58 -0.0498382C 
59 -0.0377269C 
60 -0.0469408C 
61 -0.0356492C 
62 -0.0212252C 
63 0.08434525C 
64 -0.3105586OA
65 -0.0039976SA
66 0.04550742C 
67 -0.0344305C 
68 -0.0328022C 
69 -0.0212810C 
70 0.01703408C 
71 -0.1744552SA
72 -0.0317353C 
73 -0.0302847C 
74 -0.0194743C 
75 0.03268152C 
76 -0.1728457SA


$$$$
