
     RDKit          2D

 20 21  0  0  0  0  0  0  0  0999 V2000
   -3.1531    7.9769    0.0000 C   0  0  0  0  0  0  0  0  0  0  0  0
   -1.7198    7.5348    0.0000 C   0  0  0  0  0  0  0  0  0  0  0  0
   -1.3860    6.0724    0.0000 C   0  0  0  0  0  0  0  0  0  0  0  0
    0.0474    5.6303    0.0000 C   0  0  0  0  0  0  0  0  0  0  0  0
    1.1469    6.6505    0.0000 C   0  0  0  0  0  0  0  0  0  0  0  0
    0.3812    4.1679    0.0000 C   0  0  0  0  0  0  0  0  0  0  0  0
   -0.7184    3.1476    0.0000 C   0  0  0  0  0  0  0  0  0  0  0  0
   -0.3846    1.6852    0.0000 C   0  0  0  0  0  0  0  0  0  0  0  0
    1.0777    1.3515    0.0000 C   0  0  0  0  0  0  0  0  0  0  0  0
    0.7440    2.8138    0.0000 C   0  0  0  0  0  0  0  0  0  0  0  0
    1.7286    0.0000    0.0000 N   0  0  0  0  0  0  0  0  0  0  0  0
    1.0777   -1.3515    0.0000 C   0  0  0  0  0  0  0  0  0  0  0  0
   -0.3846   -1.6852    0.0000 C   0  0  0  0  0  0  0  0  0  0  0  0
   -1.5574   -0.7500    0.0000 C   0  0  0  0  0  0  0  0  0  0  0  0
   -2.9088   -1.4008    0.0000 C   0  0  0  0  0  0  0  0  0  0  0  0
   -1.5574    0.7500    0.0000 C   0  0  0  0  0  0  0  0  0  0  0  0
   -1.7890    2.2357    0.0000 N   0  0  0  0  0  0  0  0  0  0  0  0
   -0.6894    3.2560    0.0000 C   0  0  0  0  0  0  0  0  0  0  0  0
   -1.0232    4.7184    0.0000 C   0  0  0  0  0  0  0  0  0  0  0  0
   -0.2031    5.9744    0.0000 S   0  0  0  0  0  0  0  0  0  0  0  0
  1  2  2  0
  2  3  1  0
  3  4  2  3
  4  5  1  0
  4  6  1  0
  6  7  1  0
  7  8  2  3
  8  9  1  0
  9 10  2  0
  9 11  1  0
 11 12  1  0
 12 13  1  0
 13 14  2  0
 14 15  1  0
 14 16  1  0
 16 17  2  0
 17 18  1  0
 18 19  1  0
 19 20  2  0
 16  8  1  0
 18 10  1  0
M  END
>  <fragInfo>  (1) 
7 8 9 10 11 12 13 14 15 16 17 18
1 2
3 4 5
6
19 20


>  <torsionInfo>  (1) 
6 7 3 0
18 19 0 4
2 3 1 2
4 6 2 3


>  <atomInfo>  (1) 
1  -0.0990671C 
2  -0.0695374C 
3  -0.0636190C 
4  -0.0695388C 
5  -0.0433089C 
6  -0.0127910C 
7  -0.0689641C 
8  0.01925909C 
9  0.04188509C 
10 -0.0314775C 
11 -0.3811979N 
12 0.03367493C 
13 -0.0604092C 
14 -0.0273590C 
15 -0.0378756C 
16 0.07019108C 
17 -0.2718092NA
18 0.09927607C 
19 0.00745166C 
20 -0.0907890S 


$$$$
