
     RDKit          3D

 29 29  0  0  0  0  0  0  0  0999 V2000
    8.3706    1.0900   -2.0262 C   0  0  0  0  0  0  0  0  0  0  0  0
    8.0146    0.5777   -0.6614 C   0  0  0  0  0  0  0  0  0  0  0  0
    7.6050   -0.8859   -0.7452 C   0  0  0  0  0  0  0  0  0  0  0  0
    6.8992    1.4168   -0.0289 C   0  0  0  0  0  0  0  0  0  0  0  0
    6.5650    0.8857    1.3270 C   0  0  0  0  0  0  0  0  0  0  0  0
    6.0894   -0.5419    1.3204 C   0  0  0  0  0  0  0  0  0  0  0  0
    4.8469   -0.6247    0.4727 C   0  0  1  0  0  0  0  0  0  0  0  0
    4.3139   -2.0206    0.4189 C   0  0  0  0  0  0  0  0  0  0  0  0
    3.8037    0.3986    0.8668 C   0  0  0  0  0  3  0  0  0  0  0  0
    2.6159    0.2385   -0.0251 C   0  0  0  0  0  0  0  0  0  0  0  0
    1.5672    1.2758    0.3797 C   0  0  0  0  0  0  0  0  0  0  0  0
    0.3860    1.0769   -0.5474 C   0  0  1  0  0  0  0  0  0  0  0  0
    0.8782    1.2952   -1.9631 C   0  0  0  0  0  0  0  0  0  0  0  0
   -0.0321   -0.3729   -0.4348 C   0  0  0  0  0  3  0  0  0  0  0  0
   -1.2058   -0.6551   -1.3290 C   0  0  0  0  0  0  0  0  0  0  0  0
   -2.3524    0.2389   -0.9004 C   0  0  1  0  0  0  0  0  0  0  0  0
   -1.8849    1.6713   -1.0479 C   0  0  0  0  0  0  0  0  0  0  0  0
   -3.4934    0.0152   -1.8489 C   0  0  0  0  0  0  0  0  0  0  0  0
   -4.4292   -1.0655   -1.3999 C   0  0  0  0  0  0  0  0  0  0  0  0
   -5.8811   -0.7265   -1.7265 C   0  0  2  0  0  0  0  0  0  0  0  0
   -5.9965    0.7963   -1.6618 C   0  0  0  0  0  0  0  0  0  0  0  0
   -6.7592   -1.2939   -0.6315 C   0  0  0  0  0  3  0  0  0  0  0  0
   -6.1404   -0.9676    0.7115 C   0  0  1  0  0  0  0  0  0  0  0  0
   -5.6098   -2.1793    1.4053 C   0  0  0  0  0  0  0  0  0  0  0  0
   -5.1451    0.1299    0.5314 C   0  0  0  0  0  3  0  0  0  0  0  0
   -4.5617    0.5540    1.7007 O   0  0  0  0  0  0  0  0  0  0  0  0
   -3.2593    0.9592    1.4104 C   0  0  0  0  0  0  0  0  0  0  0  0
   -2.6842   -0.0923    0.5060 C   0  0  0  0  0  0  0  0  0  0  0  0
   -2.5203   -1.1939    1.0045 O   0  0  0  0  0  0  0  0  0  0  0  0
  1  2  1  0
  2  3  1  0
  2  4  1  0
  4  5  1  0
  5  6  1  0
  6  7  1  0
  7  8  1  1
  7  9  1  0
  9 10  1  0
 10 11  1  0
 11 12  1  0
 12 13  1  6
 12 14  1  0
 14 15  1  0
 15 16  1  0
 16 17  1  1
 16 18  1  0
 18 19  1  0
 19 20  1  0
 20 21  1  1
 20 22  1  0
 22 23  1  0
 23 24  1  6
 23 25  1  0
 25 26  1  0
 26 27  1  0
 27 28  1  0
 28 29  2  0
 28 16  1  0
M  RAD  4   9   2  14   2  22   2  25   2
M  END
>  <fragInfo>  (1) 
16 17 18 19 20 21 22 23 24 25 26 27 28 29
1 2 3
4
5
6
7 8
9
10
11
12 13
14
15


>  <torsionInfo>  (1) 
15 16 11 0
2 4 1 2
4 5 2 3
5 6 3 4
6 7 4 5
7 9 5 6
9 10 6 7
10 11 7 8
11 12 8 9
12 14 9 10
14 15 10 11


>  <atomInfo>  (1) 
1  -0.0627736C 
2  -0.0471324C 
3  -0.0627736C 
4  -0.0509643C 
5  -0.0527983C 
6  -0.0504266C 
7  -0.0411603C 
8  -0.0622342C 
9  -0.0357403C 
10 -0.0496542C 
11 -0.0501516C 
12 -0.0411160C 
13 -0.0622335C 
14 -0.0347714C 
15 -0.0374284C 
16 0.02888794C 
17 -0.0525598C 
18 -0.0405381C 
19 -0.0494776C 
20 -0.0407633C 
21 -0.0622217C 
22 -0.0302486C 
23 -0.0118556C 
24 -0.0596403C 
25 0.08733996C 
26 -0.3674339OA
27 0.10618181C 
28 0.16383067C 
29 -0.2964792OA


$$$$
