
     RDKit          2D

 35 37  0  0  0  0  0  0  0  0999 V2000
    7.2760   -5.1962    0.0000 O   0  0  0  0  0  0  0  0  0  0  0  0
    8.0260   -3.8971    0.0000 C   0  0  0  0  0  0  0  0  0  0  0  0
    7.2760   -2.5981    0.0000 C   0  0  0  0  0  0  0  0  0  0  0  0
    5.7760   -2.5981    0.0000 C   0  0  0  0  0  0  0  0  0  0  0  0
    5.0260   -1.2990    0.0000 C   0  0  0  0  0  0  0  0  0  0  0  0
    3.5260   -1.2990    0.0000 C   0  0  0  0  0  0  0  0  0  0  0  0
    2.7760    0.0000    0.0000 C   0  0  0  0  0  0  0  0  0  0  0  0
    1.2760    0.0000    0.0000 C   0  0  0  0  0  0  0  0  0  0  0  0
    0.3943    1.2135    0.0000 N   0  0  0  0  0  0  0  0  0  0  0  0
   -1.0323    0.7500    0.0000 C   0  0  0  0  0  0  0  0  0  0  0  0
   -2.2458   -0.1317    0.0000 C   0  0  0  0  0  0  0  0  0  0  0  0
   -3.7130    0.1802    0.0000 C   0  0  0  0  0  0  0  0  0  0  0  0
   -4.4630   -1.1188    0.0000 C   0  0  0  0  0  0  0  0  0  0  0  0
   -3.4593   -2.2336    0.0000 C   0  0  0  0  0  0  0  0  0  0  0  0
   -3.7712   -3.7008    0.0000 Cl  0  0  0  0  0  0  0  0  0  0  0  0
   -2.0890   -1.6235    0.0000 S   0  0  0  0  0  0  0  0  0  0  0  0
   -1.0323   -0.7500    0.0000 N   0  0  0  0  0  0  0  0  0  0  0  0
    0.3943   -1.2135    0.0000 C   0  0  0  0  0  0  0  0  0  0  0  0
   -0.7187   -2.2336    0.0000 C   0  0  0  0  0  0  0  0  0  0  0  0
    9.5260   -3.8971    0.0000 N   0  0  0  0  0  0  0  0  0  0  0  0
   10.2760   -5.1962    0.0000 C   0  0  0  0  0  0  0  0  0  0  0  0
   11.7760   -5.1962    0.0000 C   0  0  0  0  0  0  0  0  0  0  0  0
   12.5260   -6.4952    0.0000 C   0  0  0  0  0  0  0  0  0  0  0  0
   14.0260   -6.4952    0.0000 C   0  0  0  0  0  0  0  0  0  0  0  0
   14.7760   -5.1962    0.0000 N   0  0  0  0  0  0  0  0  0  0  0  0
   16.2760   -5.1962    0.0000 C   0  0  0  0  0  0  0  0  0  0  0  0
   17.0260   -3.8971    0.0000 C   0  0  0  0  0  0  0  0  0  0  0  0
   18.5260   -3.8971    0.0000 C   0  0  0  0  0  0  0  0  0  0  0  0
   19.2760   -2.5981    0.0000 C   0  0  0  0  0  0  0  0  0  0  0  0
   20.7760   -2.5981    0.0000 C   0  0  0  0  0  0  0  0  0  0  0  0
   21.5260   -1.2990    0.0000 C   0  0  0  0  0  0  0  0  0  0  0  0
   23.0260   -1.2990    0.0000 C   0  0  0  0  0  0  0  0  0  0  0  0
   23.7760   -0.0000    0.0000 C   0  0  0  0  0  0  0  0  0  0  0  0
   14.7760   -7.7942    0.0000 C   0  0  0  0  0  0  0  0  0  0  0  0
   16.2760   -7.7942    0.0000 N   0  0  0  0  0  0  0  0  0  0  0  0
  1  2  2  0
  2  3  1  0
  3  4  1  0
  4  5  1  0
  5  6  2  3
  6  7  1  0
  7  8  2  3
  8  9  1  0
  9 10  1  0
 10 11  1  0
 11 12  2  0
 12 13  1  0
 13 14  2  0
 14 15  1  0
 14 16  1  0
 10 17  2  0
 17 18  1  0
 18 19  2  0
  2 20  1  0
 20 21  1  0
 21 22  1  0
 22 23  1  0
 23 24  1  0
 24 25  1  0
 25 26  1  0
 26 27  2  3
 27 28  1  0
 28 29  2  3
 29 30  1  0
 30 31  2  3
 31 32  1  0
 32 33  2  0
 24 34  1  0
 34 35  1  0
 18  8  1  0
 16 11  1  0
 19 16  1  0
M  END
>  <fragInfo>  (1) 
7 8 9 10 11 12 13 14 15 16 17 18 19
1 2 20
3
4
5 6
21
22
23
24
25
26 27
28 29
30 31
32 33
34 35


>  <torsionInfo>  (1) 
6 7 4 0
2 3 1 2
20 21 1 5
3 4 2 3
4 5 3 4
21 22 5 6
22 23 6 7
23 24 7 8
24 25 8 9
24 34 8 14
25 26 9 10
27 28 10 11
29 30 11 12
31 32 12 13


>  <atomInfo>  (1) 
1  -0.2751313OA
2  0.21980663C 
3  0.02992835C 
4  -0.0259565C 
5  -0.0839489C 
6  -0.0641149C 
7  -0.0366400C 
8  0.06625038A 
9  -0.3375327N 
10 0.14335308A 
11 0.03883987C 
12 -0.0439650C 
13 -0.0369266C 
14 0.06162231C 
15 -0.0779630Cl
16 -0.1633493S 
17 -0.2274971NA
18 0.09417831A 
19 -0.0122337C 
20 -0.3560958N 
21 0.01741329C 
22 -0.0337009C 
23 -0.0299960C 
24 0.03784308C 
25 -0.3868863N 
26 -0.0033530C 
27 -0.0464944C 
28 -0.0608344C 
29 -0.0622155C 
30 -0.0622886C 
31 -0.0628569C 
32 -0.0694938C 
33 -0.0990658C 
34 0.01259422C 
35 -0.3284743NA


$$$$
