
     RDKit          2D

 79 81  0  0  0  0  0  0  0  0999 V2000
   16.2500    8.5481    0.0000 C   0  0  0  0  0  0  0  0  0  0  0  0
   16.5105    7.0709    0.0000 C   0  0  0  0  0  3  0  0  0  0  0  0
   17.9201    6.5578    0.0000 C   0  0  0  0  0  0  0  0  0  0  0  0
   19.0691    7.5220    0.0000 C   0  0  0  0  0  0  0  0  0  0  0  0
   18.8086    8.9992    0.0000 O   0  0  0  0  0  0  0  0  0  0  0  0
   20.4787    7.0090    0.0000 C   0  0  0  0  0  0  0  0  0  0  0  0
   21.6277    7.9732    0.0000 O   0  0  0  0  0  0  0  0  0  0  0  0
   20.7391    5.5318    0.0000 C   0  0  0  0  0  0  0  0  0  0  0  0
   22.1487    5.0187    0.0000 O   0  0  0  0  0  0  0  0  0  0  0  0
   19.5901    4.5676    0.0000 O   0  0  0  0  0  0  0  0  0  0  0  0
   18.1805    5.0806    0.0000 C   0  0  0  0  0  0  0  0  0  0  0  0
   17.0315    4.1164    0.0000 C   0  0  0  0  0  3  0  0  0  0  0  0
   15.6219    4.6295    0.0000 C   0  0  0  0  0  0  0  0  0  0  0  0
   14.4729    3.6653    0.0000 C   0  0  0  0  0  3  0  0  0  0  0  0
   14.7333    2.1881    0.0000 O   0  0  0  0  0  0  0  0  0  0  0  0
   13.0633    4.1783    0.0000 C   0  0  0  0  0  0  0  0  0  0  0  0
   12.8028    5.6555    0.0000 O   0  0  0  0  0  0  0  0  0  0  0  0
   11.9142    3.2141    0.0000 C   0  0  0  0  0  0  0  0  0  0  0  0
   12.1747    1.7369    0.0000 O   0  0  0  0  0  0  0  0  0  0  0  0
   10.5047    3.7272    0.0000 C   0  0  0  0  0  0  0  0  0  0  0  0
   10.2442    5.2044    0.0000 O   0  0  0  0  0  0  0  0  0  0  0  0
    9.3556    2.7630    0.0000 C   0  0  0  0  0  3  0  0  0  0  0  0
    7.9461    3.2760    0.0000 C   0  0  0  0  0  0  0  0  0  0  0  0
    6.7970    2.3118    0.0000 C   0  0  0  0  0  3  0  0  0  0  0  0
    5.3875    2.8249    0.0000 O   0  0  0  0  0  0  0  0  0  0  0  0
    4.2384    1.8607    0.0000 O   0  0  0  0  0  0  0  0  0  0  0  0
    2.8289    2.3737    0.0000 O   0  0  0  0  0  0  0  0  0  0  0  0
    1.6798    1.4095    0.0000 C   0  0  0  0  0  0  0  0  0  0  0  0
    2.1929    0.0000    0.0000 O   0  0  0  0  0  0  0  0  0  0  0  0
    0.3808    2.1595    0.0000 C   0  0  0  0  0  3  0  0  0  0  0  0
   -1.0964    1.8991    0.0000 O   0  0  0  0  0  0  0  0  0  0  0  0
   -2.0606    0.7500    0.0000 C   0  0  0  0  0  0  0  0  0  0  0  0
   -2.0606   -0.7500    0.0000 C   0  0  0  0  0  3  0  0  0  0  0  0
   -1.0964   -1.8991    0.0000 C   0  0  0  0  0  3  0  0  0  0  0  0
   -1.8464   -3.1981    0.0000 O   0  0  0  0  0  0  0  0  0  0  0  0
    0.3808   -2.1595    0.0000 N   0  0  0  0  0  0  0  0  0  0  0  0
    1.6798   -1.4095    0.0000 C   0  0  0  0  0  0  0  0  0  0  0  0
    2.8289   -2.3737    0.0000 C   0  0  0  0  0  3  0  0  0  0  0  0
    2.5684   -3.8509    0.0000 O   0  0  0  0  0  0  0  0  0  0  0  0
    3.7175   -4.8151    0.0000 O   0  0  0  0  0  0  0  0  0  0  0  0
    3.4570   -6.2923    0.0000 N   0  0  0  0  0  0  0  0  0  0  0  0
    4.6061   -7.2565    0.0000 C   0  0  0  0  0  3  0  0  0  0  0  0
    4.3456   -8.7337    0.0000 C   0  0  0  0  0  0  0  0  0  0  0  0
    5.4947   -9.6979    0.0000 C   0  0  0  0  0  0  0  0  0  0  0  0
    6.9042   -9.1849    0.0000 O   0  0  0  0  0  0  0  0  0  0  0  0
    5.2342  -11.1751    0.0000 C   0  0  0  0  0  0  0  0  0  0  0  0
    3.8247  -11.6881    0.0000 O   0  0  0  0  0  0  0  0  0  0  0  0
    6.3833  -12.1393    0.0000 C   0  0  0  0  0  0  0  0  0  0  0  0
    5.9322  -13.5699    0.0000 C   0  0  0  0  0  0  0  0  0  0  0  0
    6.6248  -14.9004    0.0000 O   0  0  0  0  0  0  0  0  0  0  0  0
    8.0554  -15.3514    0.0000 C   0  0  0  0  0  0  0  0  0  0  0  0
    8.1861  -16.8457    0.0000 O   0  0  0  0  0  0  0  0  0  0  0  0
    9.3859  -14.6588    0.0000 C   0  0  0  0  0  0  0  0  0  0  0  0
    9.8370  -13.2282    0.0000 O   0  0  0  0  0  0  0  0  0  0  0  0
    9.1444  -11.8977    0.0000 O   0  0  0  0  0  0  0  0  0  0  0  0
    7.7138  -11.4467    0.0000 C   0  0  0  0  0  0  0  0  0  0  0  0
    7.5830   -9.9524    0.0000 C   0  0  0  0  0  3  0  0  0  0  0  0
    8.8118   -9.0920    0.0000 O   0  0  0  0  0  0  0  0  0  0  0  0
    8.6810   -7.5977    0.0000 C   0  0  0  0  0  3  0  0  0  0  0  0
    9.9098   -6.7374    0.0000 O   0  0  0  0  0  0  0  0  0  0  0  0
    9.7790   -5.2431    0.0000 C   0  0  0  0  0  0  0  0  0  0  0  0
    8.4196   -4.6091    0.0000 N   0  0  0  0  0  0  0  0  0  0  0  0
   11.0078   -4.3827    0.0000 C   0  0  0  0  0  3  0  0  0  0  0  0
   10.8770   -2.8884    0.0000 O   0  0  0  0  0  0  0  0  0  0  0  0
   12.1058   -2.0280    0.0000 C   0  0  0  0  0  0  0  0  0  0  0  0
   13.4652   -2.6620    0.0000 C   0  0  0  0  0  0  0  0  0  0  0  0
   14.6940   -1.8016    0.0000 O   0  0  0  0  0  0  0  0  0  0  0  0
   13.5960   -4.1563    0.0000 O   0  0  0  0  0  0  0  0  0  0  0  0
   12.3672   -5.0166    0.0000 C   0  0  0  0  0  3  0  0  0  0  0  0
   12.4980   -6.5109    0.0000 C   0  0  0  0  0  0  0  0  0  0  0  0
   11.2692   -7.3713    0.0000 O   0  0  0  0  0  0  0  0  0  0  0  0
   11.4000   -8.8656    0.0000 C   0  0  0  0  0  0  0  0  0  0  0  0
   10.1712   -9.7259    0.0000 O   0  0  0  0  0  0  0  0  0  0  0  0
   12.7594   -9.4995    0.0000 C   0  0  0  0  0  3  0  0  0  0  0  0
   12.8902  -10.9938    0.0000 N   0  0  0  0  0  0  0  0  0  0  0  0
   14.2496  -11.6277    0.0000 C   0  0  0  0  0  0  0  0  0  0  0  0
   14.3804  -13.1220    0.0000 C   0  0  0  0  0  0  0  0  0  0  0  0
   15.4784  -10.7674    0.0000 C   0  0  0  0  0  3  0  0  0  0  0  0
   16.8378  -11.4013    0.0000 C   0  0  0  0  0  2  0  0  0  0  0  0
  1  2  1  0
  2  3  1  0
  3  4  1  0
  4  5  1  6
  4  6  1  0
  6  7  1  6
  6  8  1  0
  8  9  1  1
  8 10  1  0
 10 11  1  0
 11 12  1  1
 12 13  1  0
 13 14  1  0
 14 15  1  0
 14 16  1  0
 16 17  1  6
 16 18  1  0
 18 19  1  1
 18 20  1  0
 20 21  1  1
 20 22  1  0
 22 23  1  0
 23 24  1  0
 24 25  1  0
 25 26  1  0
 26 27  1  0
 28 27  1  6
 28 29  1  0
 28 30  1  0
 30 31  1  0
 31 32  1  0
 32 33  1  0
 33 34  1  0
 34 35  1  0
 34 36  1  0
 36 37  1  0
 37 38  1  0
 38 39  1  0
 39 40  1  0
 40 41  1  0
 41 42  1  0
 42 43  1  0
 43 44  1  0
 44 45  1  0
 44 46  1  0
 46 47  1  1
 46 48  1  0
 48 49  1  0
 49 50  1  0
 50 51  1  0
 51 52  1  1
 51 53  1  0
 53 54  1  0
 54 55  1  0
 55 56  1  0
 56 57  1  6
 57 58  1  0
 58 59  1  0
 59 60  1  0
 60 61  1  0
 61 62  1  6
 61 63  1  0
 63 64  1  0
 64 65  1  0
 65 66  1  0
 66 67  1  1
 66 68  1  0
 68 69  1  0
 69 70  1  0
 70 71  1  0
 71 72  1  0
 72 73  1  1
 72 74  1  0
 74 75  1  0
 75 76  1  0
 76 77  1  1
 76 78  1  0
 78 79  1  0
 11  3  1  0
 37 29  1  0
 56 48  1  0
M  RAD  8   2   2  12   2  14   2  22   2  24   2  30   2  33   2  34   2
M  RAD  8  38   2  42   2  57   2  59   2  63   2  69   2  74   2  78   2
M  RAD  1  79   3
M  END
>  <fragInfo>  (1) 
28 29 30 31 32 33 34 35 36 37
1 2
3 4 5 6 7 8 9 10 11
12
13
14 15
16 17
18 19
20 21
22
23
24
25
26
27
38
39
40
41
42
43
44 45
46 47
48 49 50 51 52 53 54 55 56
57
58
59
60
61 62
63
64
65
66 67
68
69
70
71
72 73
74
75
76 77
78 79


>  <torsionInfo>  (1) 
27 28 14 0
37 38 0 15
2 3 1 2
11 12 2 3
12 13 3 4
13 14 4 5
14 16 5 6
16 18 6 7
18 20 7 8
20 22 8 9
22 23 9 10
23 24 10 11
24 25 11 12
25 26 12 13
26 27 13 14
38 39 15 16
39 40 16 17
40 41 17 18
41 42 18 19
42 43 19 20
43 44 20 21
44 46 21 22
46 48 22 23
56 57 23 24
57 58 24 25
58 59 25 26
59 60 26 27
60 61 27 28
61 63 28 29
63 64 29 30
64 65 30 31
65 66 31 32
66 68 32 33
68 69 33 34
69 70 34 35
70 71 35 36
71 72 36 37
72 74 37 38
74 75 38 39
75 76 39 40
76 78 40 41


>  <atomInfo>  (1) 
1  -0.0617809C 
2  -0.0333217C 
3  0.01709666C 
4  0.09043691C 
5  -0.3898176OA
6  0.13077452C 
7  -0.3850909OA
8  0.18324760C 
9  -0.3657353OA
10 -0.3460866OA
11 0.06969916C 
12 -0.0060983C 
13 -0.0127934C 
14 0.12465967C 
15 -0.3839269OA
16 0.11399499C 
17 -0.3871801OA
18 0.10891459C 
19 -0.3875844OA
20 0.08580843C 
21 -0.3900201OA
22 -0.0044154C 
23 -0.0149160C 
24 0.12582994C 
25 -0.1998377OA
26 -0.0648837OA
27 -0.1708897OA
28 0.22472290C 
29 -0.3255869OA
30 0.14266595C 
31 -0.3693722OA
32 0.05494104C 
33 0.03844195C 
34 0.16627833C 
35 -0.3709579OA
36 -0.2577410NA
37 0.14604636C 
38 0.16762552C 
39 -0.2074314OA
40 -0.1423334OA
41 -0.1648137NA
42 0.05554938C 
43 -0.0049310C 
44 0.08196695C 
45 -0.3903561OA
46 0.08764931C 
47 -0.3899430OA
48 0.04308104C 
49 0.05796545C 
50 -0.3498149OA
51 0.18089137C 
52 -0.3659405OA
53 0.13289445C 
54 -0.2309508OA
55 -0.2298278OA
56 0.12936908C 
57 0.11957322C 
58 -0.3388063OA
59 0.21112856C 
60 -0.3266152OA
61 0.13781296C 
62 -0.3037219NA
63 0.12708106C 
64 -0.3659240OA
65 0.09818483C 
66 0.17825557C 
67 -0.3660201OA
68 -0.3419509OA
69 0.11268367C 
70 0.07887067C 
71 -0.3483296OA
72 0.17129835C 
73 -0.3665470OA
74 0.07883679C 
75 -0.3051290NA
76 0.00782523C 
77 -0.0494557C 
78 -0.0182134C 
79 -0.0298515C 


$$$$
