
     RDKit          3D

 16 15  0  0  0  0  0  0  0  0999 V2000
    4.5354   -1.2335    1.5224 C   0  0  0  0  0  0  0  0  0  0  0  0
    4.1716    0.0841    0.8901 C   0  0  0  0  0  0  0  0  0  0  0  0
    4.0978   -0.0490   -0.6327 C   0  0  0  0  0  0  0  0  0  0  0  0
    2.8317    0.5306    1.4466 C   0  0  0  0  0  0  0  0  0  0  0  0
    1.8193   -0.5467    1.0900 C   0  0  0  0  0  3  0  0  0  0  0  0
    1.7154   -0.7305   -0.3901 C   0  0  0  0  0  0  0  0  0  0  0  0
    1.2752    0.5562   -1.0960 C   0  0  1  0  0  0  0  0  0  0  0  0
    1.2167    0.2086   -2.5875 C   0  0  0  0  0  0  0  0  0  0  0  0
   -0.1830    0.7716   -0.6745 C   0  0  0  0  0  0  0  0  0  0  0  0
   -0.9430   -0.4417   -1.1427 C   0  0  0  0  0  0  0  0  0  0  0  0
   -2.4076   -0.3763   -0.7977 C   0  0  0  0  0  0  0  0  0  0  0  0
   -2.5272   -0.2793    0.7080 C   0  0  2  0  0  0  0  0  0  0  0  0
   -1.9018   -1.4845    1.3784 C   0  0  0  0  0  0  0  0  0  0  0  0
   -3.9349   -0.0870    1.1397 C   0  0  0  0  0  0  0  0  0  0  0  0
   -4.9592   -0.1045    0.2977 C   0  0  0  0  0  0  0  0  0  0  0  0
   -4.8064   -0.3164   -1.1518 C   0  0  0  0  0  0  0  0  0  0  0  0
  1  2  1  0
  2  3  1  0
  2  4  1  0
  4  5  1  0
  5  6  1  0
  6  7  1  0
  7  8  1  6
  7  9  1  0
  9 10  1  0
 10 11  1  0
 11 12  1  0
 12 13  1  1
 12 14  1  0
 14 15  2  3
 15 16  1  0
M  RAD  1   5   2
M  END
>  <fragInfo>  (1) 
1 2 3
4
5
6
7 8
9
10
11
12 13
14 15 16


>  <torsionInfo>  (1) 
2 4 0 1
4 5 1 2
5 6 2 3
6 7 3 4
7 9 4 5
9 10 5 6
10 11 6 7
11 12 7 8
12 14 8 9


>  <atomInfo>  (1) 
1  -0.0627632C 
2  -0.0468587C 
3  -0.0627632C 
4  -0.0478421C 
5  -0.0380683C 
6  -0.0475790C 
7  -0.0440058C 
8  -0.0624993C 
9  -0.0506798C 
10 -0.0525018C 
11 -0.0472187C 
12 -0.0262067C 
13 -0.0590100C 
14 -0.0859739C 
15 -0.0913953C 
16 -0.0469813C 


$$$$
