
     RDKit          3D

 12 11  0  0  0  0  0  0  0  0999 V2000
   -0.6407    2.3811    0.7610 C   0  0  0  0  0  0  0  0  0  0  0  0
   -1.7201    2.3291   -0.0867 O   0  0  0  0  0  0  0  0  0  0  0  0
   -1.7640    1.0613   -0.6672 C   0  0  0  0  0  0  0  0  0  0  0  0
   -1.9067    0.0620    0.4672 C   0  0  0  0  0  3  0  0  0  0  0  0
   -1.9645   -1.3550   -0.0502 C   0  0  2  0  0  0  0  0  0  0  0  0
   -2.1875   -2.1964    1.0351 O   0  0  0  0  0  0  0  0  0  0  0  0
   -0.7109   -1.6766   -0.8021 C   0  0  0  0  0  3  0  0  0  0  0  0
    0.5380   -1.5664    0.0092 C   0  0  0  0  0  3  0  0  0  0  0  0
    1.5672   -0.7712   -0.7481 C   0  0  0  0  0  0  0  0  0  0  0  0
    2.8345   -0.6279    0.0119 C   0  0  0  0  0  0  0  0  0  0  0  0
    3.3323    0.5524    0.3616 C   0  0  0  0  0  0  0  0  0  0  0  0
    2.6223    1.8076   -0.0034 C   0  0  0  0  0  0  0  0  0  0  0  0
  1  2  1  0
  2  3  1  0
  3  4  1  0
  4  5  1  0
  5  6  1  1
  5  7  1  0
  7  8  1  0
  8  9  1  0
  9 10  1  0
 10 11  2  3
 11 12  1  0
M  RAD  3   4   2   7   2   8   2
M  END
>  <fragInfo>  (1) 
10 11 12
1 2
3
4
5 6
7
8
9


>  <torsionInfo>  (1) 
9 10 7 0
2 3 1 2
3 4 2 3
4 5 3 4
5 7 4 5
7 8 5 6
8 9 6 7


>  <atomInfo>  (1) 
1  0.03547304C 
2  -0.3842854OA
3  0.05193220C 
4  0.01603651C 
5  0.06291274C 
6  -0.3924227OA
7  -0.0058729C 
8  -0.0287617C 
9  -0.0315710C 
10 -0.0885185C 
11 -0.0916535C 
12 -0.0469914C 


$$$$
