
     RDKit          3D

 22 23  0  0  0  0  0  0  0  0999 V2000
   -0.3489   -0.2449    1.8446 C   0  0  0  0  0  0  0  0  0  0  0  0
   -0.3119   -1.4844    2.6271 O   0  0  0  0  0  0  0  0  0  0  0  0
   -1.3356   -2.3446    2.2577 C   0  0  0  0  0  3  0  0  0  0  0  0
   -2.5074   -1.6728    1.8937 O   0  0  0  0  0  0  0  0  0  0  0  0
   -2.8386   -1.8726    0.5704 C   0  0  2  0  0  0  0  0  0  0  0  0
   -1.7798   -2.7648   -0.0727 C   0  0  0  0  0  0  0  0  0  0  0  0
   -2.8348   -0.5335   -0.1642 C   0  0  0  0  0  3  0  0  0  0  0  0
   -1.4937    0.0988   -0.1774 C   0  0  1  0  0  0  0  0  0  0  0  0
   -1.3557    1.3716    0.4064 C   0  0  0  0  0  3  0  0  0  0  0  0
   -1.5866    2.6466   -0.4471 C   0  0  0  0  0  0  0  0  0  0  0  0
   -2.9229    2.4081   -1.0929 C   0  0  2  0  0  0  0  0  0  0  0  0
   -3.2851    3.7007   -1.9523 C   0  0  0  0  0  0  0  0  0  0  0  0
   -3.8820    3.2074   -0.6022 O   0  0  0  0  0  0  0  0  0  0  0  0
   -0.3576   -0.8518    0.3722 C   0  0  1  0  0  0  0  0  0  0  0  0
    0.8754   -0.2650   -0.0560 O   0  0  0  0  0  0  0  0  0  0  0  0
    1.4839   -1.2713   -0.7963 C   0  0  0  0  0  3  0  0  0  0  0  0
    2.4475   -0.9589   -1.8097 C   0  0  0  0  0  3  0  0  0  0  0  0
    3.5552   -0.0577   -1.3776 C   0  0  2  0  0  0  0  0  0  0  0  0
    4.5243    0.0238   -2.5423 C   0  0  0  0  0  2  0  0  0  0  0  0
    4.1306   -0.5025   -0.2058 O   0  0  0  0  0  0  0  0  0  0  0  0
    5.0853    0.3496    0.1162 O   0  0  0  0  0  0  0  0  0  0  0  0
    4.7385    1.0183    1.2081 O   0  0  0  0  0  0  0  0  0  0  0  0
  1  2  1  0
  2  3  1  0
  3  4  1  0
  4  5  1  0
  5  6  1  6
  5  7  1  0
  7  8  1  0
  8  9  1  1
  9 10  1  0
 11 10  1  1
 11 12  1  0
 11 13  1  0
  8 14  1  0
 14 15  1  6
 15 16  1  0
 16 17  1  0
 17 18  1  0
 18 19  1  6
 18 20  1  0
 20 21  1  0
 21 22  1  0
 14  1  1  0
 13 12  1  0
M  RAD  6   3   2   7   2   9   2  16   2  17   2  19   3
M  END
>  <fragInfo>  (1) 
1 2 3 4 5 6 7 8 14
9
10
11 12 13
15
16
17
18 19
20
21 22


>  <torsionInfo>  (1) 
8 9 0 1
14 15 0 4
9 10 1 2
10 11 2 3
15 16 4 5
16 17 5 6
17 18 6 7
18 20 7 8
20 21 8 9


>  <atomInfo>  (1) 
1  0.07654005C 
2  -0.3452204OA
3  0.20930642C 
4  -0.3445978OA
5  0.06161362C 
6  -0.0382518C 
7  -0.0037920C 
8  -0.0038094C 
9  -0.0297805C 
10 -0.0209472C 
11 0.08123812C 
12 0.07333602C 
13 -0.3731190OA
14 0.08490832C 
15 -0.3691519OA
16 0.09041449C 
17 0.02558215C 
18 0.10547604C 
19 0.00034556C 
20 -0.2023027OA
21 -0.0706155OA
22 -0.2211333OA


$$$$
