
     RDKit          3D

 29 28  0  0  0  0  0  0  0  0999 V2000
    7.5624    2.3746    2.0637 C   0  0  0  0  0  0  0  0  0  0  0  0
    7.2293    1.5489    0.8343 C   0  0  0  0  0  0  0  0  0  0  0  0
    6.8193    0.1681    1.3134 C   0  0  2  0  0  0  0  0  0  0  0  0
    7.9360   -0.4885    2.0825 C   0  0  0  0  0  0  0  0  0  0  0  0
    6.4404   -0.6172    0.1197 C   0  0  0  0  0  0  0  0  0  0  0  0
    7.0527   -1.6719   -0.1652 O   0  0  0  0  0  0  0  0  0  0  0  0
    5.3993   -0.1628   -0.6715 O   0  0  0  0  0  0  0  0  0  0  0  0
    4.9704   -0.8433   -1.8242 C   0  0  0  0  0  3  0  0  0  0  0  0
    3.8827   -1.8442   -1.4443 C   0  0  0  0  0  0  0  0  0  0  0  0
    2.5640   -1.1108   -1.5600 C   0  0  2  0  0  0  0  0  0  0  0  0
    2.5067   -0.0135   -0.7168 O   0  0  0  0  0  0  0  0  0  0  0  0
    1.4087   -2.0523   -1.3786 C   0  0  0  0  0  0  0  0  0  0  0  0
    0.1322   -1.2299   -1.5106 C   0  0  0  0  0  3  0  0  0  0  0  0
    0.1678   -0.2003   -0.4538 C   0  0  0  0  0  0  0  0  0  0  0  0
   -0.7986    0.6868   -0.3743 C   0  0  0  0  0  0  0  0  0  0  0  0
   -1.9262    0.6611   -1.3396 C   0  0  2  0  0  0  0  0  0  0  0  0
   -2.1186    2.0407   -1.9647 C   0  0  0  0  0  0  0  0  0  0  0  0
   -3.2092    0.4567   -0.4560 C   0  0  2  0  0  0  0  0  0  0  0  0
   -3.0439   -0.8083    0.2524 C   0  0  0  0  0  0  0  0  0  0  0  0
   -3.9899   -1.3765    1.1637 C   0  0  0  0  0  0  0  0  0  0  0  0
   -5.3310   -1.7708    0.6538 C   0  0  0  0  0  0  0  0  0  0  0  0
   -6.1981   -2.3489    1.7406 C   0  0  0  0  0  0  0  0  0  0  0  0
   -5.6114   -3.4956    2.3035 O   0  0  0  0  0  0  0  0  0  0  0  0
   -4.3005    0.6643   -1.2355 O   0  0  0  0  0  0  0  0  0  0  0  0
   -5.4716    0.6063   -0.5304 C   0  0  0  0  0  3  0  0  0  0  0  0
   -5.7188    1.9036    0.2071 C   0  0  0  0  0  0  0  0  0  0  0  0
   -5.0973    1.8180    1.5687 C   0  0  0  0  0  0  0  0  0  0  0  0
   -5.3283    3.0776    2.3054 C   0  0  0  0  0  0  0  0  0  0  0  0
   -5.9282    4.0281    1.8698 O   0  0  0  0  0  0  0  0  0  0  0  0
  1  2  1  0
  2  3  1  0
  3  4  1  6
  3  5  1  0
  5  6  2  0
  5  7  1  0
  7  8  1  0
  8  9  1  0
  9 10  1  0
 10 11  1  1
 10 12  1  0
 12 13  1  0
 13 14  1  0
 14 15  2  3
 15 16  1  0
 16 17  1  1
 16 18  1  0
 18 19  1  6
 19 20  1  0
 20 21  1  0
 21 22  1  0
 22 23  1  0
 18 24  1  0
 24 25  1  0
 25 26  1  0
 26 27  1  0
 27 28  1  0
 28 29  2  0
M  RAD  3   8   2  13   2  25   2
M  END
>  <fragInfo>  (1) 
1 2
3 4
5 6
7
8
9
10 11
12
13
14 15
16 17
18
19
20
21
22 23
24
25
26
27
28 29


>  <torsionInfo>  (1) 
2 3 0 1
3 5 1 2
5 7 2 3
7 8 3 4
8 9 4 5
9 10 5 6
10 12 6 7
12 13 7 8
13 14 8 9
15 16 9 10
16 18 10 11
18 19 11 12
18 24 11 16
19 20 12 13
20 21 13 14
21 22 14 15
24 25 16 17
25 26 17 18
26 27 18 19
27 28 19 20


>  <atomInfo>  (1) 
1  -0.0645670C 
2  -0.0430349C 
3  0.05379708C 
4  -0.0519474C 
5  0.30854727C 
6  -0.2519620OA
7  -0.4581045OA
8  0.14112618C 
9  0.01415953C 
10 0.05823896C 
11 -0.3929588OA
12 -0.0199722C 
13 -0.0144871C 
14 -0.0843687C 
15 -0.0828109C 
16 0.00022522C 
17 -0.0565137C 
18 0.06396602C 
19 -0.0260591C 
20 -0.0486334C 
21 -0.0297820C 
22 0.04305405C 
23 -0.3963765OA
24 -0.3716772OA
25 0.08446604C 
26 -0.0175126C 
27 0.00557320C 
28 0.11959036C 
29 -0.3034011OA


$$$$
