
     RDKit          3D

 38 38  0  0  0  0  0  0  0  0999 V2000
   -7.4021    2.6049   -1.5727 O   0  0  0  0  0  0  0  0  0  0  0  0
   -7.5770    1.7846   -0.4770 C   0  0  0  0  0  0  0  0  0  0  0  0
   -7.3024    0.3219   -0.8228 C   0  0  0  0  0  3  0  0  0  0  0  0
   -7.4918   -0.5076    0.3350 N   0  0  0  0  0  0  0  0  0  0  0  0
   -6.4003   -1.4523    0.4349 C   0  0  2  0  0  0  0  0  0  0  0  0
   -6.5518   -2.3495    1.6375 C   0  0  0  0  0  0  0  0  0  0  0  0
   -5.4852   -3.2276    1.6818 O   0  0  0  0  0  0  0  0  0  0  0  0
   -5.1219   -0.6735    0.5781 C   0  0  1  0  0  0  0  0  0  0  0  0
   -4.0082   -1.5103    0.6817 O   0  0  0  0  0  0  0  0  0  0  0  0
   -4.9231    0.2587   -0.5712 C   0  0  2  0  0  0  0  0  0  0  0  0
   -4.7660   -0.3593   -1.7900 O   0  0  0  0  0  0  0  0  0  0  0  0
   -3.8975    1.3035   -0.2699 C   0  0  1  0  0  0  0  0  0  0  0  0
   -4.3814    2.0950    0.9375 C   0  0  0  0  0  0  0  0  0  0  0  0
   -2.5524    0.7471    0.0687 C   0  0  2  0  0  0  0  0  0  0  0  0
   -1.6935    1.8140    0.3266 O   0  0  0  0  0  0  0  0  0  0  0  0
   -2.0209   -0.0169   -0.9754 O   0  0  0  0  0  0  0  0  0  0  0  0
   -0.7676   -0.4931   -0.5950 C   0  0  0  0  0  0  0  0  0  0  0  0
   -0.9200   -1.2767    0.5447 O   0  0  0  0  0  0  0  0  0  0  0  0
    0.2612   -1.7985    1.0060 C   0  0  0  0  0  0  0  0  0  0  0  0
    1.2022   -0.8359    1.3514 O   0  0  0  0  0  0  0  0  0  0  0  0
    1.4884   -0.0761    0.2432 C   0  0  2  0  0  0  0  0  0  0  0  0
    2.0015   -0.7861   -0.8173 O   0  0  0  0  0  0  0  0  0  0  0  0
    2.9290   -1.7448   -0.4528 C   0  0  2  0  0  0  0  0  0  0  0  0
    3.7753   -1.2624    0.7150 C   0  0  0  0  0  0  0  0  0  0  0  0
    3.8849   -1.9588   -1.6173 C   0  0  0  0  0  0  0  0  0  0  0  0
    5.2409   -3.0697   -1.1511 S   0  0  0  0  0  0  0  0  0  0  0  0
    6.6673   -2.2280   -0.7617 O   0  0  0  0  0  0  0  0  0  0  0  0
    6.4692   -1.2334    0.0602 O   0  0  0  0  0  0  0  0  0  0  0  0
    7.3048   -0.1648   -0.2041 C   0  0  0  0  0  0  0  0  0  0  0  0
    7.0957    0.3619   -1.4863 O   0  0  0  0  0  0  0  0  0  0  0  0
    6.0946    1.2151   -1.3833 O   0  0  0  0  0  0  0  0  0  0  0  0
    6.4766    2.3822   -0.9214 O   0  0  0  0  0  0  0  0  0  0  0  0
    5.8004    2.7583    0.1296 O   0  0  0  0  0  0  0  0  0  0  0  0
    4.6184    2.1877    0.1995 O   0  0  0  0  0  0  0  0  0  0  0  0
    3.7832    2.8193    0.9556 O   0  0  0  0  0  0  0  0  0  0  0  0
    3.4154    2.1555    2.0210 O   0  0  0  0  0  0  0  0  0  0  0  0
    2.6123    1.1127    1.7498 N   0  0  0  0  0  0  0  0  0  0  0  0
    2.1418    1.1030    0.5010 O   0  0  0  0  0  0  0  0  0  0  0  0
  1  2  1  0
  2  3  1  0
  3  4  1  0
  4  5  1  0
  5  6  1  1
  6  7  1  0
  5  8  1  0
  8  9  1  6
  8 10  1  0
 10 11  1  6
 10 12  1  0
 12 13  1  1
 12 14  1  0
 14 15  1  6
 14 16  1  0
 16 17  1  0
 17 18  1  0
 18 19  1  0
 19 20  1  0
 21 20  1  1
 21 22  1  0
 22 23  1  0
 23 24  1  1
 23 25  1  0
 25 26  1  0
 26 27  1  0
 27 28  1  0
 28 29  1  0
 29 30  1  0
 30 31  1  0
 31 32  1  0
 32 33  1  0
 33 34  1  0
 34 35  1  0
 35 36  1  0
 36 37  1  0
 37 38  1  0
 38 21  1  0
M  RAD  1   3   2
M  END
>  <fragInfo>  (1) 
21 22 23 24 25 26 27 28 29 30 31 32 33 34 35 36 37 38
1 2
3
4
5
6 7
8 9
10 11
12 13
14 15
16
17
18
19
20


>  <torsionInfo>  (1) 
20 21 14 0
2 3 1 2
3 4 2 3
4 5 3 4
5 6 4 5
5 8 4 6
8 10 6 7
10 12 7 8
12 14 8 9
14 16 9 10
16 17 10 11
17 18 11 12
18 19 12 13
19 20 13 14


>  <atomInfo>  (1) 
1  -0.3946905OA
2  0.06004187C 
3  0.04808498C 
4  -0.3028773NA
5  0.05917910C 
6  0.06106344C 
7  -0.3946489OA
8  0.09781942C 
9  -0.3886891OA
10 0.08886861C 
11 -0.3898854OA
12 0.03567310C 
13 -0.0550452C 
14 0.16201765C 
15 -0.3675236OA
16 -0.3263906OA
17 0.15226199C 
18 -0.3290696OA
19 0.15478337C 
20 -0.3016882OA
21 0.29290173C 
22 -0.3246806OA
23 0.07169277C 
24 -0.0375529C 
25 0.04918338C 
26 0.03420824SA
27 -0.1608079OA
28 -0.1921838OA
29 0.21865286C 
30 -0.1716636OA
31 -0.0315012OA
32 -0.0024002OA
33 -0.0001094OA
34 -0.0008935OA
35 -0.0127245OA
36 -0.0832574OA
37 -0.0383376NA
38 -0.2145342OA


$$$$
