
     RDKit          3D

 31 31  0  0  0  0  0  0  0  0999 V2000
    3.0365    2.3219   -0.1767 C   0  0  0  0  0  0  0  0  0  0  0  0
    2.4544    3.6241    0.2339 C   0  0  1  0  0  0  0  0  0  0  0  0
    2.7275    4.6894   -0.7954 C   0  0  0  0  0  0  0  0  0  0  0  0
    0.9907    3.4275    0.4814 C   0  0  0  0  0  0  0  0  0  0  0  0
    0.2342    4.1534   -0.6097 C   0  0  0  0  0  0  0  0  0  0  0  0
   -0.9806    4.7813    0.0203 C   0  0  0  0  0  0  0  0  0  0  0  0
   -2.0285    3.7096    0.1670 C   0  0  1  0  0  0  0  0  0  0  0  0
   -2.5795    3.6307    1.5702 C   0  0  0  0  0  0  0  0  0  0  0  0
   -3.1154    3.9456   -0.8512 C   0  0  0  0  0  3  0  0  0  0  0  0
   -4.2576    2.9910   -0.6349 C   0  0  0  0  0  3  0  0  0  0  0  0
   -3.7586    1.8438    0.2151 C   0  0  0  0  0  0  0  0  0  0  0  0
   -4.4096    0.5550   -0.2537 C   0  0  2  0  0  0  0  0  0  0  0  0
   -5.8060    0.4359    0.3278 C   0  0  0  0  0  0  0  0  0  0  0  0
   -3.5504   -0.5825    0.2266 C   0  0  0  0  0  3  0  0  0  0  0  0
   -4.3644   -1.8024    0.6013 C   0  0  0  0  0  0  0  0  0  0  0  0
   -3.3991   -2.9796    0.6219 C   0  0  1  0  0  0  0  0  0  0  0  0
   -4.1177   -4.3002    0.5688 C   0  0  0  0  0  0  0  0  0  0  0  0
   -2.5262   -2.8298   -0.6175 C   0  0  0  0  0  0  0  0  0  0  0  0
   -1.1024   -2.6720   -0.1295 C   0  0  0  0  0  0  0  0  0  0  0  0
   -0.3553   -3.9267   -0.5482 C   0  0  2  0  0  0  0  0  0  0  0  0
   -1.2622   -5.1178   -0.6821 C   0  0  0  0  0  0  0  0  0  0  0  0
    0.7376   -4.2202    0.4443 C   0  0  0  0  0  3  0  0  0  0  0  0
    1.7269   -3.0633    0.3686 C   0  0  0  0  0  0  0  0  0  0  0  0
    3.0692   -3.6374   -0.0555 C   0  0  0  0  0  0  0  0  0  0  0  0
    4.1594   -2.7109    0.4431 C   0  0  1  0  0  0  0  0  0  0  0  0
    5.4058   -3.5608    0.6357 C   0  0  0  0  0  2  0  0  0  0  0  0
    4.4723   -1.6905   -0.6189 C   0  0  0  0  0  3  0  0  0  0  0  0
    3.7827   -0.3884   -0.3408 C   0  0  0  0  0  0  0  0  0  0  0  0
    4.7923    0.6227    0.1291 C   0  0  1  0  0  0  0  0  0  0  0  0
    5.8994    0.8456   -0.8783 C   0  0  0  0  0  0  0  0  0  0  0  0
    4.1246    1.9047    0.4534 C   0  0  0  0  0  0  0  0  0  0  0  0
  1  2  1  0
  2  3  1  6
  2  4  1  0
  4  5  1  0
  5  6  1  0
  6  7  1  0
  7  8  1  1
  7  9  1  0
  9 10  1  0
 10 11  1  0
 11 12  1  0
 12 13  1  1
 12 14  1  0
 14 15  1  0
 15 16  1  0
 16 17  1  6
 16 18  1  0
 18 19  1  0
 19 20  1  0
 20 21  1  1
 20 22  1  0
 22 23  1  0
 23 24  1  0
 24 25  1  0
 25 26  1  6
 25 27  1  0
 27 28  1  0
 28 29  1  0
 29 30  1  6
 29 31  1  0
  1 31  2  3
M  RAD  6   9   2  10   2  14   2  22   2  26   3  27   2
M  END
>  <fragInfo>  (1) 
1 2 3 4 5 6 7 8 9 10 11 12 13 14 15 16 17 18 19 20 21 22 23 24 25 26 27 28 29 30 31


>  <torsionInfo>  (1) 


>  <atomInfo>  (1) 
1  -0.0854271C 
2  -0.0261861C 
3  -0.0590097C 
4  -0.0472182C 
5  -0.0524915C 
6  -0.0504048C 
7  -0.0408747C 
8  -0.0622236C 
9  -0.0323484C 
10 -0.0346439C 
11 -0.0470180C 
12 -0.0408661C 
13 -0.0622235C 
14 -0.0354766C 
15 -0.0473240C 
16 -0.0439860C 
17 -0.0624990C 
18 -0.0504366C 
19 -0.0501825C 
20 -0.0411505C 
21 -0.0622341C 
22 -0.0357397C 
23 -0.0496335C 
24 -0.0496019C 
25 -0.0348642C 
26 -0.0315043C 
27 -0.0346107C 
28 -0.0438214C 
29 -0.0259021C 
30 -0.0589991C 
31 -0.0854165C 


$$$$
