
     RDKit          3D

 21 20  0  0  0  0  0  0  0  0999 V2000
   -2.7740   -3.9949   -0.0508 C   0  0  0  0  0  0  0  0  0  0  0  0
   -1.9534   -3.0036    0.7457 C   0  0  0  0  0  0  0  0  0  0  0  0
   -1.0347   -3.7104    1.7134 C   0  0  0  0  0  0  0  0  0  0  0  0
   -2.7663   -1.9885    1.4193 C   0  0  0  0  0  0  0  0  0  0  0  0
   -2.7184   -0.7109    1.0930 C   0  0  0  0  0  0  0  0  0  0  0  0
   -1.8526   -0.2094    0.0364 C   0  0  0  0  0  0  0  0  0  0  0  0
   -1.0392   -1.0766   -0.6694 O   0  0  0  0  0  0  0  0  0  0  0  0
    0.2666   -1.2704   -0.2662 C   0  0  0  0  0  0  0  0  0  0  0  0
    1.2423   -0.4325   -0.6181 C   0  0  0  0  0  0  0  0  0  0  0  0
    0.8076    0.9264   -1.6125 Cl  0  0  0  0  0  0  0  0  0  0  0  0
    2.5428   -0.6798   -0.1805 C   0  0  0  0  0  0  0  0  0  0  0  0
    3.7025   -0.1638   -0.2798 C   0  0  0  0  0  0  0  0  0  0  0  0
    4.8092   -0.9266    0.4597 C   0  0  0  0  0  0  0  0  0  0  0  0
    5.4121    0.0091    1.4853 C   0  0  0  0  0  0  0  0  0  0  0  0
    4.1667    1.0071   -0.9604 C   0  0  0  0  0  0  0  0  0  0  0  0
    3.4504    1.7767   -1.6223 O   0  0  0  0  0  0  0  0  0  0  0  0
   -1.8374    1.0583   -0.2519 C   0  0  0  0  0  0  0  0  0  0  0  0
   -2.6470    2.0462    0.4239 C   0  0  0  0  0  0  0  0  0  0  0  0
   -2.6139    3.3254    0.1134 C   0  0  0  0  0  0  0  0  0  0  0  0
   -1.7706    3.7575   -0.9036 O   0  0  0  0  0  0  0  0  0  0  0  0
   -3.3927    4.2605    0.7668 O   0  0  0  0  0  0  0  0  0  0  0  0
  1  2  1  0
  2  3  1  0
  2  4  1  0
  4  5  2  3
  5  6  1  0
  6  7  1  0
  7  8  1  0
  8  9  2  3
  9 10  1  0
  9 11  1  0
 11 12  2  3
 12 13  1  0
 13 14  1  0
 12 15  1  0
 15 16  2  0
  6 17  2  3
 17 18  1  0
 18 19  2  3
 19 20  1  0
 19 21  1  0
M  END
>  <fragInfo>  (1) 
18 19 20 21
1 2 3
4 5
6 17
7
8 9 10
11 12
13 14
15 16


>  <torsionInfo>  (1) 
17 18 3 0
2 4 1 2
5 6 2 3
6 7 3 4
7 8 4 5
9 11 5 6
12 13 6 7
12 15 6 8


>  <atomInfo>  (1) 
1  -0.0592619C 
2  -0.0285945C 
3  -0.0592619C 
4  -0.0782702C 
5  -0.0230799C 
6  0.12604600C 
7  -0.4634622OA
8  0.10964124C 
9  0.07608021C 
10 -0.0809408Cl
11 -0.0339101C 
12 -0.0068369C 
13 -0.0274557C 
14 -0.0611754C 
15 0.14556475C 
16 -0.2982560OA
17 -0.0123172C 
18 0.02203617C 
19 0.27369469C 
20 -0.4811004OA
21 -0.4811004OA


$$$$
