
     RDKit          2D

 81 82  0  0  0  0  0  0  0  0999 V2000
    0.8637  -13.7886    0.0000 C   0  0  0  0  0  0  0  0  0  0  0  0
    2.0007  -12.8102    0.0000 C   0  0  0  0  0  0  0  0  0  0  0  0
    3.4165  -13.3056    0.0000 C   0  0  0  0  0  0  0  0  0  0  0  0
    1.7218  -11.3363    0.0000 C   0  0  0  0  0  0  0  0  0  0  0  0
    2.8588  -10.3579    0.0000 C   0  0  0  0  0  0  0  0  0  0  0  0
    2.5799   -8.8840    0.0000 C   0  0  0  0  0  0  0  0  0  0  0  0
    3.7169   -7.9056    0.0000 C   0  0  0  0  0  0  0  0  0  0  0  0
    5.1327   -8.4010    0.0000 C   0  0  0  0  0  0  0  0  0  0  0  0
    3.4380   -6.4317    0.0000 C   0  0  0  0  0  3  0  0  0  0  0  0
    2.0222   -5.9363    0.0000 C   0  0  0  0  0  0  0  0  0  0  0  0
    1.7433   -4.4625    0.0000 C   0  0  0  0  0  0  0  0  0  0  0  0
    0.3275   -3.9671    0.0000 C   0  0  0  0  0  0  0  0  0  0  0  0
    0.4954   -2.4765    0.0000 C   0  0  0  0  0  0  0  0  0  0  0  0
   -0.4706   -5.2371    0.0000 C   0  0  0  0  0  3  0  0  0  0  0  0
   -1.7407   -6.0352    0.0000 C   0  0  0  0  0  0  0  0  0  0  0  0
   -3.2312   -6.2031    0.0000 C   0  0  0  0  0  0  0  0  0  0  0  0
   -3.3992   -7.6937    0.0000 N   0  0  0  0  0  1  0  0  0  0  0  0
   -4.6471   -5.7077    0.0000 C   0  0  0  0  0  0  0  0  0  0  0  0
   -5.7077   -4.6471    0.0000 C   0  0  0  0  0  0  0  0  0  0  0  0
   -6.2031   -3.2312    0.0000 C   0  0  0  0  0  0  0  0  0  0  0  0
   -7.6937   -3.3992    0.0000 C   0  0  0  0  0  0  0  0  0  0  0  0
   -6.0352   -1.7407    0.0000 O   0  0  0  0  0  0  0  0  0  0  0  0
   -5.2371   -0.4706    0.0000 C   0  0  0  0  0  0  0  0  0  0  0  0
   -3.9671    0.3275    0.0000 C   0  0  0  0  0  0  0  0  0  0  0  0
   -4.4625    1.7433    0.0000 O   0  0  0  0  0  0  0  0  0  0  0  0
   -2.4765    0.4954    0.0000 C   0  0  0  0  0  0  0  0  0  0  0  0
   -1.0607    0.0000    0.0000 S   0  0  0  0  0  0  0  0  0  0  0  0
   -0.0000   -1.0607    0.0000 C   0  0  0  0  0  0  0  0  0  0  0  0
    1.0607    0.0000    0.0000 C   0  0  0  0  0  0  0  0  0  0  0  0
    2.5607    0.0000    0.0000 C   0  0  0  0  0  2  0  0  0  0  0  0
    0.0000    1.0607    0.0000 C   0  0  0  0  0  0  0  0  0  0  0  0
    0.0000    2.5607    0.0000 S   0  0  0  0  0  0  0  0  0  0  0  0
    1.2990    3.3107    0.0000 C   0  0  0  0  0  0  0  0  0  0  0  0
    1.2990    4.8107    0.0000 C   0  0  0  0  0  0  0  0  0  0  0  0
    2.5981    5.5607    0.0000 C   0  0  0  0  0  0  0  0  0  0  0  0
    2.5981    7.0607    0.0000 C   0  0  0  0  0  2  0  0  0  0  0  0
    3.8971    4.8107    0.0000 C   0  0  0  0  0  0  0  0  0  0  0  0
    5.1962    5.5607    0.0000 C   0  0  0  0  0  0  0  0  0  0  0  0
    6.4952    4.8107    0.0000 C   0  0  0  0  0  0  0  0  0  0  0  0
    7.7942    5.5607    0.0000 C   0  0  0  0  0  0  0  0  0  0  0  0
    6.4952    3.3107    0.0000 C   0  0  0  0  0  0  0  0  0  0  0  0
    7.7942    2.5607    0.0000 C   0  0  0  0  0  0  0  0  0  0  0  0
    7.7942    1.0607    0.0000 C   0  0  0  0  0  0  0  0  0  0  0  0
    6.4952    0.3107    0.0000 O   0  0  0  0  0  0  0  0  0  0  0  0
    9.0933    0.3107    0.0000 C   0  0  0  0  0  0  0  0  0  0  0  0
    9.0933   -1.1893    0.0000 C   0  0  0  0  0  3  0  0  0  0  0  0
   10.3923   -1.9393    0.0000 C   0  0  0  0  0  0  0  0  0  0  0  0
   10.3923   -3.4393    0.0000 C   0  0  0  0  0  2  0  0  0  0  0  0
   11.6913   -1.1893    0.0000 C   0  0  0  0  0  0  0  0  0  0  0  0
   12.9904   -1.9393    0.0000 C   0  0  0  0  0  3  0  0  0  0  0  0
   14.2894   -1.1893    0.0000 C   0  0  0  0  0  0  0  0  0  0  0  0
   15.5885   -1.9393    0.0000 C   0  0  0  0  0  0  0  0  0  0  0  0
   16.8875   -1.1893    0.0000 C   0  0  0  0  0  0  0  0  0  0  0  0
   18.1865   -1.9393    0.0000 C   0  0  0  0  0  0  0  0  0  0  0  0
   19.4856   -1.1893    0.0000 C   0  0  0  0  0  2  0  0  0  0  0  0
   18.1865   -3.4393    0.0000 C   0  0  0  0  0  0  0  0  0  0  0  0
   19.4856   -4.1893    0.0000 C   0  0  0  0  0  3  0  0  0  0  0  0
   19.4856   -5.6893    0.0000 C   0  0  0  0  0  3  0  0  0  0  0  0
   20.7846   -6.4393    0.0000 C   0  0  0  0  0  0  0  0  0  0  0  0
   18.1865   -6.4393    0.0000 C   0  0  0  0  0  0  0  0  0  0  0  0
   18.1865   -7.9393    0.0000 C   0  0  0  0  0  0  0  0  0  0  0  0
   16.8875   -8.6893    0.0000 C   0  0  0  0  0  0  0  0  0  0  0  0
   16.8875  -10.1893    0.0000 C   0  0  0  0  0  0  0  0  0  0  0  0
   15.5885  -10.9393    0.0000 C   0  0  0  0  0  0  0  0  0  0  0  0
   15.5885  -12.4393    0.0000 C   0  0  0  0  0  0  0  0  0  0  0  0
   14.2894  -13.1893    0.0000 C   0  0  0  0  0  0  0  0  0  0  0  0
   14.2894  -14.6893    0.0000 C   0  0  0  0  0  0  0  0  0  0  0  0
   12.9904  -15.4393    0.0000 C   0  0  0  0  0  2  0  0  0  0  0  0
   15.5885  -15.4393    0.0000 C   0  0  0  0  0  0  0  0  0  0  0  0
   15.5885  -16.9393    0.0000 C   0  0  0  0  0  0  0  0  0  0  0  0
   16.8875  -17.6893    0.0000 C   0  0  0  0  0  0  0  0  0  0  0  0
   16.8875  -19.1893    0.0000 C   0  0  0  0  0  0  0  0  0  0  0  0
   18.1865  -16.9393    0.0000 C   0  0  0  0  0  3  0  0  0  0  0  0
   19.4856  -17.6893    0.0000 C   0  0  0  0  0  0  0  0  0  0  0  0
   20.7846  -16.9393    0.0000 C   0  0  0  0  0  0  0  0  0  0  0  0
   22.0836  -17.6893    0.0000 C   0  0  0  0  0  0  0  0  0  0  0  0
   23.3827  -16.9393    0.0000 C   0  0  0  0  0  0  0  0  0  0  0  0
   22.0836  -19.1893    0.0000 C   0  0  0  0  0  3  0  0  0  0  0  0
   23.3827  -19.9393    0.0000 C   0  0  0  0  0  0  0  0  0  0  0  0
   23.3827  -21.4393    0.0000 C   0  0  0  0  0  0  0  0  0  0  0  0
   24.6817  -19.1893    0.0000 C   0  0  0  0  0  0  0  0  0  0  0  0
  1  2  1  0
  2  3  1  0
  2  4  1  0
  4  5  1  0
  5  6  1  0
  6  7  1  0
  7  8  1  6
  7  9  1  0
  9 10  1  0
 10 11  1  0
 12 11  1  6
 12 13  1  0
 12 14  1  0
 14 15  1  0
 15 16  1  0
 16 17  1  0
 16 18  1  0
 18 19  1  0
 19 20  1  0
 20 21  1  0
 20 22  1  0
 22 23  1  0
 23 24  1  0
 24 25  1  0
 24 26  1  0
 26 27  1  0
 27 28  1  0
 28 29  1  0
 29 30  1  6
 29 31  1  0
 31 32  1  0
 32 33  1  0
 33 34  1  0
 34 35  1  0
 35 36  1  1
 35 37  1  0
 37 38  1  0
 38 39  1  0
 39 40  1  1
 39 41  1  0
 41 42  1  0
 42 43  1  0
 43 44  1  0
 43 45  1  0
 45 46  1  0
 46 47  1  0
 47 48  1  6
 47 49  1  0
 49 50  1  0
 50 51  1  0
 51 52  1  0
 52 53  1  0
 53 54  1  0
 54 55  1  1
 54 56  1  0
 56 57  1  0
 57 58  1  0
 58 59  1  0
 58 60  1  0
 60 61  1  0
 61 62  1  0
 62 63  1  0
 63 64  1  0
 64 65  1  0
 65 66  1  0
 66 67  1  0
 67 68  1  6
 67 69  1  0
 69 70  1  0
 70 71  1  0
 71 72  1  6
 71 73  1  0
 73 74  1  0
 74 75  1  0
 75 76  1  0
 76 77  1  1
 76 78  1  0
 78 79  1  0
 79 80  1  0
 79 81  1  0
 28 13  1  0
 31 27  1  0
M  RAD  8   9   2  14   2  17   2  30   3  36   3  46   2  48   3  50   2
M  CHG  1  17   1
M  RAD  6  55   3  57   2  58   2  68   3  73   2  78   2
M  END
>  <fragInfo>  (1) 
12 13 14 15 16 17 18 19 20 21 22 23 24 25 26 27 28 29 30 31
1 2 3
4
5
6
7 8
9
10
11
32
33
34
35 36
37
38
39 40
41
42
43 44
45
46
47 48
49
50
51
52
53
54 55
56
57
58 59
60
61
62
63
64
65
66
67 68
69
70
71 72
73
74
75
76 77
78
79 80 81


>  <torsionInfo>  (1) 
11 12 8 0
31 32 0 9
2 4 1 2
4 5 2 3
5 6 3 4
6 7 4 5
7 9 5 6
9 10 6 7
10 11 7 8
32 33 9 10
33 34 10 11
34 35 11 12
35 37 12 13
37 38 13 14
38 39 14 15
39 41 15 16
41 42 16 17
42 43 17 18
43 45 18 19
45 46 19 20
46 47 20 21
47 49 21 22
49 50 22 23
50 51 23 24
51 52 24 25
52 53 25 26
53 54 26 27
54 56 27 28
56 57 28 29
57 58 29 30
58 60 30 31
60 61 31 32
61 62 32 33
62 63 33 34
63 64 34 35
64 65 35 36
65 66 36 37
66 67 37 38
67 69 38 39
69 70 39 40
70 71 40 41
71 73 41 42
73 74 42 43
74 75 43 44
75 76 44 45
76 78 45 46
78 79 46 47


>  <atomInfo>  (1) 
1  -0.0627736C 
2  -0.0471324C 
3  -0.0627736C 
4  -0.0509643C 
5  -0.0527983C 
6  -0.0504266C 
7  -0.0411603C 
8  -0.0622342C 
9  -0.0357401C 
10 -0.0496434C 
11 -0.0498452C 
12 -0.0370509C 
13 -0.0394312C 
14 -0.0288068C 
15 0.02181104C 
16 0.27693787C 
17 0.42156818N 
18 0.02089334C 
19 -0.0206138C 
20 0.05503177C 
21 -0.0386729C 
22 -0.3757906OA
23 0.07366634C 
24 0.08471506C 
25 -0.3899304OA
26 0.00438992C 
27 -0.2357164S 
28 -0.0074263C 
29 -0.0081182C 
30 -0.0287788C 
31 0.03687727C 
32 -0.1490340SA
33 -0.0054145C 
34 -0.0409700C 
35 -0.0372191C 
36 -0.0317700C 
37 -0.0498786C 
38 -0.0504347C 
39 -0.0441749C 
40 -0.0625079C 
41 -0.0482527C 
42 -0.0267441C 
43 0.05427956C 
44 -0.3931199OA
45 -0.0236075C 
46 -0.0326214C 
47 -0.0345256C 
48 -0.0314924C 
49 -0.0467628C 
50 -0.0382895C 
51 -0.0501620C 
52 -0.0527572C 
53 -0.0501408C 
54 -0.0377193C 
55 -0.0317896C 
56 -0.0464778C 
57 -0.0318154C 
58 -0.0237939C 
59 -0.0588346C 
60 -0.0470533C 
61 -0.0527564C 
62 -0.0532852C 
63 -0.0533054C 
64 -0.0532956C 
65 -0.0530316C 
66 -0.0501616C 
67 -0.0380039C 
68 -0.0318005C 
69 -0.0498978C 
70 -0.0501620C 
71 -0.0411502C 
72 -0.0622340C 
73 -0.0357401C 
74 -0.0496541C 
75 -0.0501421C 
76 -0.0408961C 
77 -0.0622240C 
78 -0.0331902C 
79 -0.0437479C 
80 -0.0624881C 
81 -0.0624881C 


$$$$
