
     RDKit          3D

  9  9  0  0  0  0  0  0  0  0999 V2000
    2.1505    0.1130   -0.3389 O   0  0  0  0  0  0  0  0  0  0  0  0
    1.4204   -0.7281    0.3642 O   0  0  0  0  0  0  0  0  0  0  0  0
    0.3717   -1.2155   -0.4288 C   0  0  0  0  0  3  0  0  0  0  0  0
   -0.7865   -1.2065    0.3267 O   0  0  0  0  0  0  0  0  0  0  0  0
   -1.5966   -0.1168    0.0991 C   0  0  2  0  0  0  0  0  0  0  0  0
   -2.6266   -0.4563   -0.9435 C   0  0  0  0  0  0  0  0  0  0  0  0
   -0.8544    1.1221   -0.2927 C   0  0  0  0  0  3  0  0  0  0  0  0
    0.4535    1.2767    0.4458 C   0  0  0  0  0  3  0  0  0  0  0  0
    1.4681    1.2116   -0.5240 O   0  0  0  0  0  0  0  0  0  0  0  0
  1  2  1  0
  2  3  1  0
  3  4  1  0
  4  5  1  0
  5  6  1  6
  5  7  1  0
  7  8  1  0
  8  9  1  0
  9  1  1  0
M  RAD  3   3   2   7   2   8   2
M  END
>  <fragInfo>  (1) 
1 2 3 4 5 6 7 8 9


>  <torsionInfo>  (1) 


>  <atomInfo>  (1) 
1  -0.0647723OA
2  -0.1681481OA
3  0.24897420C 
4  -0.3421671OA
5  0.06414353C 
6  -0.0381562C 
7  0.02525887C 
8  0.13155154C 
9  -0.1994165OA


$$$$
