
     RDKit          3D

 25 25  0  0  0  0  0  0  0  0999 V2000
   -3.3003    1.4192    0.8700 C   0  0  0  0  0  0  0  0  0  0  0  0
   -3.2552   -0.1092    0.6187 C   0  0  1  0  0  0  0  0  0  0  0  0
   -4.6251   -0.6134    0.9676 C   0  0  0  0  0  0  0  0  0  0  0  0
   -5.5153   -0.4973   -0.2318 C   0  0  2  0  0  0  0  0  0  0  0  0
   -5.2723   -1.6056   -1.0476 O   0  0  0  0  0  0  0  0  0  0  0  0
   -5.2647    0.7540   -1.0488 C   0  0  2  0  0  0  0  0  0  0  0  0
   -6.0743    0.6337   -2.1833 O   0  0  0  0  0  0  0  0  0  0  0  0
   -3.8093    0.7662   -1.5924 C   0  0  1  0  0  0  0  0  0  0  0  0
   -3.2715    2.0448   -1.3997 O   0  0  0  0  0  0  0  0  0  0  0  0
   -3.1239   -0.2982   -0.8935 C   0  0  1  0  0  0  0  0  0  0  0  0
   -1.8113   -0.6938   -1.2491 N   0  0  0  0  0  0  0  0  0  0  0  0
   -0.9537    0.2923   -0.6958 C   0  0  0  0  0  3  0  0  0  0  0  0
   -0.1117   -0.2892    0.4507 C   0  0  2  0  0  0  0  0  0  0  0  0
   -0.3085    0.3430    1.7264 C   0  0  0  0  0  0  0  0  0  0  0  0
    1.1784   -0.0414   -0.1093 O   0  0  0  0  0  0  0  0  0  0  0  0
    1.6818    0.9355    0.7806 C   0  0  0  0  0  3  0  0  0  0  0  0
    2.6395    1.6430    0.0724 O   0  0  0  0  0  0  0  0  0  0  0  0
    3.6322    0.6824   -0.2751 C   0  0  1  0  0  0  0  0  0  0  0  0
    4.6565    1.4653   -0.8321 O   0  0  0  0  0  0  0  0  0  0  0  0
    4.1150   -0.0148    0.9306 C   0  0  2  0  0  0  0  0  0  0  0  0
    3.2050   -0.7305    1.6316 O   0  0  0  0  0  0  0  0  0  0  0  0
    4.9682    0.8902    1.7521 C   0  0  0  0  0  3  0  0  0  0  0  0
    6.2341    1.1951    1.0137 C   0  0  0  0  0  3  0  0  0  0  0  0
    7.0056    0.0384    0.9926 O   0  0  0  0  0  0  0  0  0  0  0  0
    7.3807   -0.1895   -0.2484 O   0  0  0  0  0  0  0  0  0  0  0  0
  2  1  1  6
  2  3  1  0
  3  4  1  0
  4  5  1  6
  4  6  1  0
  6  7  1  6
  6  8  1  0
  8  9  1  1
  8 10  1  0
 10 11  1  1
 11 12  1  0
 12 13  1  0
 13 14  1  1
 13 15  1  0
 15 16  1  0
 16 17  1  0
 17 18  1  0
 18 19  1  1
 18 20  1  0
 20 21  1  1
 20 22  1  0
 22 23  1  0
 23 24  1  0
 24 25  1  0
 10  2  1  0
M  RAD  4  12   2  16   2  22   2  23   2
M  END
>  <fragInfo>  (1) 
1 2 3 4 5 6 7 8 9 10
11
12
13 14
15
16
17
18 19
20 21
22
23
24 25


>  <torsionInfo>  (1) 
10 11 0 1
11 12 1 2
12 13 2 3
13 15 3 4
15 16 4 5
16 17 5 6
17 18 6 7
18 20 7 8
20 22 8 9
22 23 9 10
23 24 10 11


>  <atomInfo>  (1) 
1  -0.0608233C 
2  -0.0236268C 
3  -0.0201755C 
4  0.08280077C 
5  -0.3903155OA
6  0.10722524C 
7  -0.3876533OA
8  0.09793080C 
9  -0.3886791OA
10 0.03848614C 
11 -0.3043247NA
12 0.05132339C 
13 0.07497987C 
14 -0.0369417C 
15 -0.3431363OA
16 0.21198335C 
17 -0.3158501OA
18 0.18405556C 
19 -0.3657230OA
20 0.11074424C 
21 -0.3874225OA
22 0.03019989C 
23 0.12822825C 
24 -0.2327864OA
25 -0.2514270OA


$$$$
