
     RDKit          2D

 61 62  0  0  0  0  0  0  0  0999 V2000
    1.7286    0.0000    0.0000 C   0  0  0  0  0  0  0  0  0  0  0  0
    1.0777    1.3515    0.0000 O   0  0  0  0  0  0  0  0  0  0  0  0
   -0.3846    1.6852    0.0000 C   0  0  0  0  0  3  0  0  0  0  0  0
   -1.5574    0.7500    0.0000 O   0  0  0  0  0  0  0  0  0  0  0  0
   -1.5574   -0.7500    0.0000 C   0  0  0  0  0  0  0  0  0  0  0  0
   -2.9088   -1.4008    0.0000 C   0  0  0  0  0  0  0  0  0  0  0  0
   -0.3846   -1.6852    0.0000 C   0  0  0  0  0  3  0  0  0  0  0  0
    1.0777   -1.3515    0.0000 C   0  0  0  0  0  0  0  0  0  0  0  0
    2.0130   -2.5242    0.0000 N   0  0  0  0  0  0  0  0  0  0  0  0
    1.4650   -3.9205    0.0000 C   0  0  0  0  0  3  0  0  0  0  0  0
    2.4002   -5.0933    0.0000 C   0  0  0  0  0  0  0  0  0  0  0  0
    3.7965   -5.6413    0.0000 C   0  0  0  0  0  0  0  0  0  0  0  0
    2.6238   -6.5765    0.0000 C   0  0  0  0  0  0  0  0  0  0  0  0
    2.0758   -7.9728    0.0000 C   0  0  0  0  0  0  0  0  0  0  0  0
    5.2798   -5.4177    0.0000 C   0  0  0  0  0  0  0  0  0  0  0  0
    6.2150   -6.5905    0.0000 O   0  0  0  0  0  0  0  0  0  0  0  0
    7.6982   -6.3669    0.0000 C   0  0  0  0  0  0  0  0  0  0  0  0
    8.6335   -7.5396    0.0000 O   0  0  0  0  0  0  0  0  0  0  0  0
   10.1167   -7.3161    0.0000 C   0  0  0  0  0  3  0  0  0  0  0  0
   11.0520   -8.4888    0.0000 C   0  0  0  0  0  0  0  0  0  0  0  0
   10.5039   -9.8851    0.0000 O   0  0  0  0  0  0  0  0  0  0  0  0
   12.5352   -8.2653    0.0000 C   0  0  0  0  0  3  0  0  0  0  0  0
   13.4704   -9.4380    0.0000 O   0  0  0  0  0  0  0  0  0  0  0  0
   14.9537   -9.2144    0.0000 C   0  0  0  0  0  3  0  0  0  0  0  0
   15.8889  -10.3872    0.0000 O   0  0  0  0  0  0  0  0  0  0  0  0
   17.3722  -10.1636    0.0000 C   0  0  0  0  0  0  0  0  0  0  0  0
   18.3074  -11.3364    0.0000 C   0  0  0  0  0  0  0  0  0  0  0  0
   19.7906  -11.1128    0.0000 C   0  0  0  0  0  2  0  0  0  0  0  0
   17.9202   -8.7673    0.0000 C   0  0  0  0  0  0  0  0  0  0  0  0
   19.4034   -8.5438    0.0000 C   0  0  0  0  0  0  0  0  0  0  0  0
   20.3387   -9.7165    0.0000 O   0  0  0  0  0  0  0  0  0  0  0  0
   19.9514   -7.1474    0.0000 C   0  0  0  0  0  3  0  0  0  0  0  0
   21.4347   -6.9239    0.0000 C   0  0  0  0  0  0  0  0  0  0  0  0
   21.9827   -5.5276    0.0000 C   0  0  0  0  0  0  0  0  0  0  0  0
   23.4659   -5.3040    0.0000 C   0  0  0  0  0  3  0  0  0  0  0  0
   24.0140   -3.9077    0.0000 C   0  0  0  0  0  2  0  0  0  0  0  0
   16.9849   -7.5946    0.0000 S   0  0  0  0  0  0  0  0  0  0  0  0
   17.5330   -6.1983    0.0000 O   0  0  0  0  0  0  0  0  0  0  0  0
   16.5977   -5.0255    0.0000 C   0  0  0  0  0  3  0  0  0  0  0  0
   17.1457   -3.6292    0.0000 O   0  0  0  0  0  0  0  0  0  0  0  0
   16.2105   -2.4565    0.0000 C   0  0  0  0  0  3  0  0  0  0  0  0
   16.7585   -1.0601    0.0000 C   0  0  0  0  0  0  0  0  0  0  0  0
   15.8233    0.1126    0.0000 C   0  0  0  0  0  3  0  0  0  0  0  0
   16.3713    1.5089    0.0000 C   0  0  0  0  0  3  0  0  0  0  0  0
   15.4361    2.6817    0.0000 O   0  0  0  0  0  0  0  0  0  0  0  0
   15.9841    4.0780    0.0000 C   0  0  0  0  0  3  0  0  0  0  0  0
   15.0488    5.2507    0.0000 C   0  0  0  0  0  0  0  0  0  0  0  0
   13.5656    5.0272    0.0000 O   0  0  0  0  0  0  0  0  0  0  0  0
   15.5968    6.6470    0.0000 C   0  0  0  0  0  0  0  0  0  0  0  0
   14.6616    7.8198    0.0000 O   0  0  0  0  0  0  0  0  0  0  0  0
   18.2418   -0.8366    0.0000 C   0  0  0  0  0  0  0  0  0  0  0  0
   18.7898    0.5597    0.0000 C   0  0  0  0  0  3  0  0  0  0  0  0
   20.2730    0.7833    0.0000 O   0  0  0  0  0  0  0  0  0  0  0  0
   20.8210    2.1796    0.0000 C   0  0  0  0  0  0  0  0  0  0  0  0
   22.3043    2.4032    0.0000 C   0  0  0  0  0  3  0  0  0  0  0  0
   22.8523    3.7995    0.0000 O   0  0  0  0  0  0  0  0  0  0  0  0
   24.3355    4.0230    0.0000 O   0  0  0  0  0  0  0  0  0  0  0  0
   24.8835    5.4194    0.0000 C   0  0  0  0  0  3  0  0  0  0  0  0
   26.3668    5.6429    0.0000 C   0  0  0  0  0  2  0  0  0  0  0  0
   19.1770   -2.0093    0.0000 C   0  0  0  0  0  0  0  0  0  0  0  0
   20.6602   -1.7858    0.0000 O   0  0  0  0  0  0  0  0  0  0  0  0
  1  2  1  0
  2  3  1  0
  3  4  1  0
  4  5  1  0
  5  6  1  1
  5  7  1  0
  7  8  1  0
  8  9  1  1
  9 10  1  0
 11 10  1  1
 11 12  1  0
 12 13  1  0
 13 14  1  0
 12 15  1  0
 15 16  1  0
 16 17  1  0
 17 18  1  0
 18 19  1  0
 19 20  1  0
 20 21  1  1
 20 22  1  0
 22 23  1  0
 23 24  1  0
 24 25  1  0
 25 26  1  0
 26 27  1  1
 27 28  1  0
 26 29  1  0
 29 30  1  0
 30 31  1  1
 30 32  1  0
 32 33  1  0
 33 34  1  0
 34 35  1  0
 35 36  1  0
 29 37  1  1
 37 38  1  0
 38 39  1  0
 39 40  1  0
 40 41  1  0
 42 41  1  6
 42 43  1  0
 43 44  1  0
 44 45  1  0
 45 46  1  0
 46 47  1  0
 47 48  1  6
 47 49  1  0
 49 50  1  0
 42 51  1  0
 51 52  1  6
 52 53  1  0
 53 54  1  0
 54 55  1  0
 55 56  1  0
 56 57  1  0
 57 58  1  0
 58 59  1  0
 51 60  1  0
 60 61  2  0
  8  1  1  0
 13 11  1  0
M  RAD  8   3   2   7   2  10   2  19   2  22   2  24   2  28   3  32   2
M  RAD  8  35   2  36   3  39   2  41   2  43   2  44   2  46   2  52   2
M  RAD  3  55   2  58   2  59   3
M  END
>  <fragInfo>  (1) 
1 2 3 4 5 6 7 8
9
10
11 12 13 14
15
16
17
18
19
20 21
22
23
24
25
26
27 28
29
30 31
32
33
34
35 36
37
38
39
40
41
42
43
44
45
46
47 48
49 50
51
52
53
54
55
56
57
58 59
60 61


>  <torsionInfo>  (1) 
8 9 0 1
9 10 1 2
10 11 2 3
12 15 3 4
15 16 4 5
16 17 5 6
17 18 6 7
18 19 7 8
19 20 8 9
20 22 9 10
22 23 10 11
23 24 11 12
24 25 12 13
25 26 13 14
26 27 14 15
26 29 14 16
29 30 16 17
29 37 16 22
30 32 17 18
32 33 18 19
33 34 19 20
34 35 20 21
37 38 22 23
38 39 23 24
39 40 24 25
40 41 25 26
41 42 26 27
42 43 27 28
42 51 27 34
43 44 28 29
44 45 29 30
45 46 30 31
46 47 31 32
47 49 32 33
51 52 34 35
51 60 34 42
52 53 35 36
53 54 36 37
54 55 37 38
55 56 38 39
56 57 39 40
57 58 40 41


>  <atomInfo>  (1) 
1  0.06570150C 
2  -0.3463129OA
3  0.20927063C 
4  -0.3445459OA
5  0.06286428C 
6  -0.0382008C 
7  0.00939574C 
8  0.03633681C 
9  -0.3066862NA
10 0.02618984C 
11 -0.0161959C 
12 -0.0101781C 
13 -0.0341520C 
14 -0.0618112C 
15 0.05285820C 
16 -0.3550994OA
17 0.14686974C 
18 -0.3465683OA
19 0.11772507C 
20 0.11180837C 
21 -0.3874721OA
22 0.11826834C 
23 -0.3388894OA
24 0.20971970C 
25 -0.3432368OA
26 0.07777718C 
27 -0.0219154C 
28 -0.0324852C 
29 0.08372391C 
30 0.07377947C 
31 -0.3914788OA
32 -0.0086246C 
33 -0.0472869C 
34 -0.0495144C 
35 -0.0348732C 
36 -0.0315045C 
37 0.00368354SA
38 -0.2780428OA
39 0.22281475C 
40 -0.3407811OA
41 0.09144836C 
42 0.00557909C 
43 -0.0004028C 
44 0.08815408C 
45 -0.3663434OA
46 0.11486682C 
47 0.10582334C 
48 -0.3879032OA
49 0.07173797C 
50 -0.3935789OA
51 0.04919332C 
52 0.09426451C 
53 -0.3718015OA
54 0.07939016C 
55 0.14767581C 
56 -0.2275291OA
57 -0.2296914OA
58 0.12604653C 
59 0.00274583C 
60 0.12566184C 
61 -0.3029661OA


$$$$
