
     RDKit          3D

 31 30  0  0  0  0  0  0  0  0999 V2000
   -4.3234    3.5475   -0.5753 C   0  0  0  0  0  0  0  0  0  0  0  0
   -5.0963    2.9891    0.4341 O   0  0  0  0  0  0  0  0  0  0  0  0
   -4.4036    1.9359    1.0174 C   0  0  0  0  0  3  0  0  0  0  0  0
   -5.1576    1.2305    1.9227 O   0  0  0  0  0  0  0  0  0  0  0  0
   -5.7478    0.0920    1.4600 C   0  0  2  0  0  0  0  0  0  0  0  0
   -6.5482   -0.5628    2.5355 C   0  0  0  0  0  0  0  0  0  0  0  0
   -4.8607   -0.9252    0.8360 C   0  0  0  0  0  3  0  0  0  0  0  0
   -3.9518   -0.4186   -0.2440 C   0  0  1  0  0  0  0  0  0  0  0  0
   -3.1912   -1.5935   -0.8008 C   0  0  0  0  0  3  0  0  0  0  0  0
   -2.3639   -2.3204    0.1934 C   0  0  0  0  0  0  0  0  0  0  0  0
   -1.3179   -1.4244    0.7708 C   0  0  2  0  0  0  0  0  0  0  0  0
   -1.8682   -0.2314    1.4752 C   0  0  0  0  0  0  0  0  0  0  0  0
   -0.3206   -1.1164   -0.1547 O   0  0  0  0  0  0  0  0  0  0  0  0
    0.5730   -0.3060    0.4600 N   0  0  0  0  0  0  0  0  0  0  0  0
    0.9800    0.6773   -0.5482 C   0  0  0  0  0  0  0  0  0  0  0  0
    1.9859    1.6318    0.0557 C   0  0  0  0  0  0  0  0  0  0  0  0
    3.1776    0.8508    0.5123 C   0  0  1  0  0  0  0  0  0  0  0  0
    2.7868   -0.0719    1.4538 O   0  0  0  0  0  0  0  0  0  0  0  0
    3.8881    0.2598   -0.6686 C   0  0  2  0  0  0  0  0  0  0  0  0
    3.1234   -0.6566   -1.3664 O   0  0  0  0  0  0  0  0  0  0  0  0
    5.1956   -0.3731   -0.2230 C   0  0  0  0  0  3  0  0  0  0  0  0
    5.9568    0.6520    0.3520 O   0  0  0  0  0  0  0  0  0  0  0  0
    7.2668    0.5752   -0.1135 C   0  0  0  0  0  0  0  0  0  0  0  0
    7.8715   -0.7442    0.2505 C   0  0  0  0  0  3  0  0  0  0  0  0
    9.2952   -0.7948   -0.2702 C   0  0  0  0  0  3  0  0  0  0  0  0
   10.0516    0.4767    0.1091 C   0  0  0  0  0  3  0  0  0  0  0  0
    9.5743    1.5473   -0.6563 O   0  0  0  0  0  0  0  0  0  0  0  0
   -4.6895    0.2421   -1.3830 C   0  0  0  0  0  0  0  0  0  0  0  0
   -5.6276   -0.7685   -1.9964 C   0  0  0  0  0  3  0  0  0  0  0  0
   -5.5462   -1.9820   -1.3562 O   0  0  0  0  0  0  0  0  0  0  0  0
   -6.7122   -2.4180   -0.9306 O   0  0  0  0  0  0  0  0  0  0  0  0
  1  2  1  0
  2  3  1  0
  3  4  1  0
  4  5  1  0
  5  6  1  1
  5  7  1  0
  8  7  1  1
  8  9  1  0
  9 10  1  0
 10 11  1  0
 11 12  1  6
 11 13  1  0
 13 14  1  0
 14 15  1  0
 15 16  1  0
 16 17  1  0
 17 18  1  1
 17 19  1  0
 19 20  1  1
 19 21  1  0
 21 22  1  0
 22 23  1  0
 23 24  1  0
 24 25  1  0
 25 26  1  0
 26 27  1  0
  8 28  1  0
 28 29  1  0
 29 30  1  0
 30 31  1  0
M  RAD  8   3   2   7   2   9   2  21   2  24   2  25   2  26   2  29   2
M  END
>  <fragInfo>  (1) 
1 2
3
4
5 6
7
8
9
10
11 12
13
14
15
16
17 18
19 20
21
22
23
24
25
26 27
28
29
30 31


>  <torsionInfo>  (1) 
2 3 0 1
3 4 1 2
4 5 2 3
5 7 3 4
7 8 4 5
8 9 5 6
8 28 5 21
9 10 6 7
10 11 7 8
11 13 8 9
13 14 9 10
14 15 10 11
15 16 11 12
16 17 12 13
17 19 13 14
19 21 14 15
21 22 15 16
22 23 16 17
23 24 17 18
24 25 18 19
25 26 19 20
28 29 21 22
29 30 22 23


>  <atomInfo>  (1) 
1  0.03885651C 
2  -0.3513313OA
3  0.20894050C 
4  -0.3446084OA
5  0.06151497C 
6  -0.0382535C 
7  -0.0063504C 
8  -0.0298440C 
9  -0.0323647C 
10 -0.0215890C 
11 0.07646543C 
12 -0.0366485C 
13 -0.2987956OA
14 -0.2021645NA
15 0.02352609C 
16 -0.0094295C 
17 0.08383703C 
18 -0.3902736OA
19 0.10866444C 
20 -0.3875973OA
21 0.11463711C 
22 -0.3722765OA
23 0.05076853C 
24 -0.0066437C 
25 -0.0015468C 
26 0.08370427C 
27 -0.3901072OA
28 -0.0173309C 
29 0.12221140C 
30 -0.2332114OA
31 -0.2514394OA


$$$$
