
     RDKit          3D

100101  0  0  0  0  0  0  0  0999 V2000
   -5.7975   -0.2609   -1.4185 C   0  0  2  0  0  0  0  0  0  0  0  0
   -4.6819   -1.3672   -1.5154 C   0  0  1  0  0  0  0  0  0  0  0  0
   -3.6343   -0.7772   -2.4454 C   0  0  0  0  0  0  0  0  0  0  0  0
   -4.0373   -1.4633   -0.1490 C   0  0  0  0  0  0  0  0  0  0  0  0
   -3.2829   -2.7827   -0.0442 C   0  0  0  0  0  0  0  0  0  0  0  0
   -4.2285   -3.8884    0.3888 C   0  0  0  0  0  0  0  0  0  0  0  0
   -3.9768   -5.1450   -0.4006 C   0  0  1  0  0  0  0  0  0  0  0  0
   -2.7610   -5.0707   -1.2788 C   0  0  0  0  0  0  0  0  0  0  0  0
   -3.8889   -6.3712    0.4959 C   0  0  0  0  0  3  0  0  0  0  0  0
   -4.1930   -7.6515   -0.2729 C   0  0  0  0  0  0  0  0  0  0  0  0
   -2.9213   -8.3927   -0.6767 C   0  0  0  0  0  3  0  0  0  0  0  0
   -2.1792   -8.8814    0.5715 C   0  0  1  0  0  0  0  0  0  0  0  0
   -2.2901  -10.4021    0.5555 C   0  0  0  0  0  0  0  0  0  0  0  0
   -0.6853   -8.5179    0.4049 C   0  0  0  0  0  0  0  0  0  0  0  0
   -0.4432   -8.2740   -1.0696 C   0  0  0  0  0  0  0  0  0  0  0  0
   -0.0454   -9.6247   -1.7036 C   0  0  0  0  0  3  0  0  0  0  0  0
    1.0493  -10.1758   -0.9570 C   0  0  0  0  0  0  0  0  0  0  0  0
    1.9195  -10.6299   -0.3456 C   0  0  0  0  0  0  0  0  0  0  0  0
    2.9656  -11.1703    0.4148 C   0  0  0  0  0  0  0  0  0  0  0  0
    3.9210  -10.2353    1.0225 C   0  0  0  0  0  0  0  0  0  0  0  0
    5.2727  -10.3599    0.3441 C   0  0  0  0  0  0  0  0  0  0  0  0
    5.6951   -8.9747   -0.1663 C   0  0  0  0  0  0  0  0  0  0  0  0
    7.0826   -9.0601   -0.7739 C   0  0  0  0  0  0  0  0  0  0  0  0
    7.6345   -7.7732   -1.1436 C   0  0  1  0  0  0  0  0  0  0  0  0
    6.6905   -6.6536   -1.4122 C   0  0  0  0  0  0  0  0  0  0  0  0
    8.8008   -7.3160   -0.4952 C   0  0  0  0  0  0  0  0  0  0  0  0
    9.5830   -7.0012   -0.0565 C   0  0  0  0  0  0  0  0  0  0  0  0
   10.8892   -6.5040    0.6611 C   0  0  0  0  0  0  0  0  0  0  0  0
   11.9983   -7.1782   -0.1920 C   0  0  0  0  0  0  0  0  0  0  0  0
   13.2620   -6.5810    0.1548 C   0  0  0  0  0  0  0  0  0  0  0  0
   14.2399   -6.1161    0.4314 C   0  0  0  0  0  0  0  0  0  0  0  0
   15.4632   -5.5360    0.7604 C   0  0  0  0  0  0  0  0  0  0  0  0
   15.4014   -4.0922    1.0073 C   0  0  0  0  0  0  0  0  0  0  0  0
   14.8055   -3.2114    0.2301 C   0  0  0  0  0  0  0  0  0  0  0  0
   15.4651   -2.1385   -0.0729 C   0  0  0  0  0  0  0  0  0  0  0  0
   15.0584   -0.7631    0.2416 C   0  0  0  0  0  0  0  0  0  0  0  0
   16.3126    0.1348    0.3286 C   0  0  0  0  0  3  0  0  0  0  0  0
   16.2418    1.2032   -0.7188 C   0  0  0  0  0  0  0  0  0  0  0  0
   16.4415    2.5883   -0.1762 C   0  0  0  0  0  3  0  0  0  0  0  0
   15.3077    3.3779   -0.2006 C   0  0  0  0  0  0  0  0  0  0  0  0
   14.3794    4.0448   -0.2250 C   0  0  0  0  0  0  0  0  0  0  0  0
   13.3735    4.7786   -0.2668 C   0  0  0  0  0  0  0  0  0  0  0  0
   12.3764    5.4927   -0.3208 C   0  0  0  0  0  0  0  0  0  0  0  0
   11.4081    6.1671   -0.3612 C   0  0  0  0  0  0  0  0  0  0  0  0
   10.2986    6.0909    0.7280 C   0  0  0  0  0  0  0  0  0  0  0  0
    9.7036    7.5095    0.7992 C   0  0  1  0  0  0  0  0  0  0  0  0
   10.6115    8.5236    0.1876 C   0  0  0  0  0  0  0  0  0  0  0  0
    8.3313    7.4927    0.2790 C   0  0  0  0  0  0  0  0  0  0  0  0
    7.8113    8.9349    0.1095 C   0  0  0  0  0  0  0  0  0  0  0  0
    7.9704    9.7870    1.2980 C   0  0  0  0  0  0  0  0  0  0  0  0
    6.6282   10.2139    1.8362 C   0  0  0  0  0  3  0  0  0  0  0  0
    5.6584   10.7051    0.8079 C   0  0  0  0  0  3  0  0  0  0  0  0
    4.2789   10.1027    1.1459 C   0  0  0  0  0  3  0  0  0  0  0  0
    3.2244   11.2299    1.2250 C   0  0  0  0  0  0  0  0  0  0  0  0
    1.9101   10.8753    0.5404 C   0  0  0  0  0  3  0  0  0  0  0  0
    1.0123   12.1191    0.5646 C   0  0  0  0  0  0  0  0  0  0  0  0
    0.0553   11.8202   -0.6904 C   0  0  0  0  0  3  0  0  0  0  0  0
    0.1819   10.8107   -1.2534 C   0  0  0  0  0  0  0  0  0  0  0  0
    0.1432    9.4865   -1.8115 C   0  0  0  0  0  0  0  0  0  0  0  0
   -0.8421    8.6904   -1.3175 C   0  0  0  0  0  0  0  0  0  0  0  0
   -1.6061    7.8579   -0.8272 C   0  0  0  0  0  0  0  0  0  0  0  0
   -3.0980    8.1902   -0.8320 C   0  0  0  0  0  0  0  0  0  0  0  0
   -1.2535    6.5919   -0.1715 C   0  0  0  0  0  0  0  0  0  0  0  0
   -2.2309    6.3842    1.0047 C   0  0  0  0  0  0  0  0  0  0  0  0
   -3.4261    5.6167    0.4128 C   0  0  0  0  0  0  0  0  0  0  0  0
   -2.8447    4.2792    0.0324 C   0  0  0  0  0  0  0  0  0  0  0  0
   -1.3683    4.0405    0.2456 C   0  0  0  0  0  2  0  0  0  0  0  0
   -3.6133    3.3642   -0.4566 C   0  0  0  0  0  0  0  0  0  0  0  0
   -5.0500    3.3985   -0.7163 C   0  0  0  0  0  3  0  0  0  0  0  0
   -5.5563    2.1960   -1.4458 C   0  0  0  0  0  3  0  0  0  0  0  0
   -5.2243    0.9055   -0.7754 C   0  0  0  0  0  3  0  0  0  0  0  0
   -5.4510    0.9453    0.6750 C   0  0  0  0  0  0  0  0  0  0  0  0
   -6.0213    2.2202    1.1944 C   0  0  0  0  0  0  0  0  0  0  0  0
   -7.3642    2.0035    1.8085 C   0  0  0  0  0  3  0  0  0  0  0  0
   -8.4369    2.6853    1.0109 C   0  0  0  0  0  0  0  0  0  0  0  0
   -9.2026    2.0167    0.1983 C   0  0  0  0  0  0  0  0  0  0  0  0
   -9.0990    2.1265   -1.0776 C   0  0  0  0  0  0  0  0  0  0  0  0
  -10.1139    1.8502   -1.8556 C   0  0  0  0  0  0  0  0  0  0  0  0
  -11.4956    1.7448   -1.2909 C   0  0  0  0  0  0  0  0  0  0  0  0
  -11.7370    2.7076   -0.2158 C   0  0  0  0  0  0  0  0  0  0  0  0
  -12.8883    2.2598    0.7058 C   0  0  1  0  0  0  0  0  0  0  0  0
  -13.7096    1.1561    0.1511 C   0  0  0  0  0  0  0  0  0  0  0  0
  -12.2369    1.8745    2.0172 C   0  0  0  0  0  3  0  0  0  0  0  0
  -12.7698    0.5737    2.5386 C   0  0  0  0  0  3  0  0  0  0  0  0
  -11.8171   -0.5188    2.2486 C   0  0  0  0  0  0  0  0  0  0  0  0
  -12.1906   -1.8042    2.4375 C   0  0  0  0  0  0  0  0  0  0  0  0
  -11.1363   -2.8403    2.1493 C   0  0  0  0  0  0  0  0  0  0  0  0
   -9.8872   -2.4719    2.1898 C   0  0  0  0  0  0  0  0  0  0  0  0
   -8.7415   -3.2601    1.9394 C   0  0  0  0  0  0  0  0  0  0  0  0
   -7.5027   -2.8975    1.7306 C   0  0  0  0  0  0  0  0  0  0  0  0
   -6.9399   -1.5944    1.6809 C   0  0  0  0  0  0  0  0  0  0  0  0
   -6.2054   -1.1525    0.7210 C   0  0  0  0  0  0  0  0  0  0  0  0
   -6.9192   -0.8037   -0.5161 C   0  0  0  0  0  0  0  0  0  0  0  0
   -8.0280   -1.0140   -0.6688 C   0  0  0  0  0  0  0  0  0  0  0  0
   -9.3370   -1.2432   -0.8345 C   0  0  0  0  0  0  0  0  0  0  0  0
  -10.7411   -1.4650   -1.0145 C   0  0  0  0  0  0  0  0  0  0  0  0
  -12.0877   -1.6701   -1.1690 C   0  0  0  0  0  0  0  0  0  0  0  0
  -13.1127   -1.8307   -1.2740 C   0  0  0  0  0  0  0  0  0  0  0  0
  -14.5665   -2.0366   -1.4119 C   0  0  0  0  0  0  0  0  0  0  0  0
  -15.9585   -2.2248   -1.5564 C   0  0  0  0  0  2  0  0  0  0  0  0
  1  2  1  0
  2  3  1  6
  2  4  1  0
  4  5  1  0
  5  6  1  0
  6  7  1  0
  7  8  1  1
  7  9  1  0
  9 10  1  0
 10 11  1  0
 11 12  1  0
 12 13  1  6
 12 14  1  0
 14 15  1  0
 15 16  1  0
 16 17  1  0
 17 18  3  0
 18 19  1  0
 19 20  1  0
 20 21  1  0
 21 22  1  0
 22 23  1  0
 23 24  1  0
 24 25  1  1
 24 26  1  0
 26 27  3  0
 27 28  1  0
 28 29  1  0
 29 30  1  0
 30 31  3  0
 31 32  1  0
 32 33  1  0
 33 34  2  0
 34 35  2  0
 35 36  1  0
 36 37  1  0
 37 38  1  0
 38 39  1  0
 39 40  1  0
 40 41  3  0
 41 42  1  0
 42 43  3  0
 43 44  1  0
 44 45  1  0
 45 46  1  0
 46 47  1  6
 46 48  1  0
 48 49  1  0
 49 50  1  0
 50 51  1  0
 51 52  1  0
 52 53  1  0
 53 54  1  0
 54 55  1  0
 55 56  1  0
 56 57  1  0
 57 58  1  0
 58 59  2  3
 59 60  1  0
 60 61  2  3
 61 62  1  0
 61 63  1  0
 63 64  1  0
 64 65  1  0
 65 66  1  0
 66 67  1  0
 66 68  2  3
 68 69  1  0
 69 70  1  0
 70 71  1  0
 71 72  1  0
 72 73  1  0
 73 74  1  0
 74 75  1  0
 75 76  2  0
 76 77  2  0
 77 78  2  0
 78 79  1  0
 79 80  1  0
 80 81  1  0
 81 82  1  6
 81 83  1  0
 83 84  1  0
 84 85  1  0
 85 86  2  3
 86 87  1  0
 87 88  2  3
 88 89  1  0
 89 90  2  3
 90 91  1  0
 91 92  2  0
 92 93  2  0
 93 94  1  0
 94 95  3  0
 95 96  1  0
 96 97  3  0
 97 98  1  0
 98 99  3  0
 99100  1  0
 71  1  1  0
  1 93  1  1
M  RAD  8   9   2  11   2  16   2  37   2  39   2  51   2  52   2  53   2
M  RAD  8  55   2  57   2  67   3  69   2  70   2  71   2  74   2  83   2
M  RAD  2  84   2 100   3
M  END
>  <fragInfo>  (1) 
1 2 3 4 5 6 7 8 9 10 11 12 13 14 15 16 17 18 19 20 21 22 23 24 25 26 27 28 29 30 31 32 33 34 35 36 37 38 39 40 41 42 43 44 45 46 47 48 49 50 51 52 53 54 55 56 57 58 59 60 61 62 63 64 65 66 67 68 69 70 71 72 73 74 75 76 77 78 79 80 81 82 83 84 85 86 87 88 89 90 91 92 93 94 95 96 97 98 99 100


>  <torsionInfo>  (1) 


>  <atomInfo>  (1) 
1  0.00834665C 
2  -0.0355559C 
3  -0.0618578C 
4  -0.0500506C 
5  -0.0527654C 
6  -0.0504258C 
7  -0.0411498C 
8  -0.0622340C 
9  -0.0354563C 
10 -0.0465314C 
11 -0.0354555C 
12 -0.0411056C 
13 -0.0622333C 
14 -0.0492147C 
15 -0.0379198C 
16 0.03401768C 
17 -0.0986198C 
18 -0.1029805C 
19 0.00887573C 
20 -0.0422580C 
21 -0.0523551C 
22 -0.0521066C 
23 -0.0396585C 
24 0.01741199C 
25 -0.0514047C 
26 -0.1001694C 
27 -0.1020423C 
28 0.01985551C 
29 0.01985696C 
30 -0.1019735C 
31 -0.0984765C 
32 0.03442698C 
33 -0.0307119C 
34 -0.1285630C 
35 -0.0423524C 
36 -0.0242750C 
37 -0.0329289C 
38 -0.0346982C 
39 0.03536066C 
40 -0.0843864C 
41 -0.0150117C 
42 -0.0153438C 
43 -0.0890899C 
44 0.01014140C 
45 -0.0396316C 
46 -0.0433730C 
47 -0.0624762C 
48 -0.0506673C 
49 -0.0527669C 
50 -0.0498765C 
51 -0.0348960C 
52 -0.0317899C 
53 -0.0346121C 
54 -0.0467423C 
55 -0.0376868C 
56 -0.0432538C 
57 -0.0164439C 
58 -0.0808230C 
59 -0.0660295C 
60 -0.0636501C 
61 -0.0733255C 
62 -0.0436209C 
63 -0.0316900C 
64 -0.0457992C 
65 -0.0313923C 
66 -0.0695366C 
67 -0.0059911C 
68 -0.0809811C 
69 -0.0127469C 
70 -0.0236486C 
71 -0.0110460C 
72 -0.0454838C 
73 -0.0451553C 
74 -0.0081518C 
75 -0.0301957C 
76 -0.0746565C 
77 -0.0749621C 
78 -0.0339025C 
79 -0.0265273C 
80 -0.0463019C 
81 -0.0402379C 
82 -0.0622007C 
83 -0.0282592C 
84 -0.0130554C 
85 -0.0805232C 
86 -0.0659638C 
87 -0.0625741C 
88 -0.0622579C 
89 -0.0616538C 
90 -0.0544877C 
91 -0.0190022C 
92 -0.1078525C 
93 0.04873401C 
94 -0.0484659C 
95 -0.0085468C 
96 -0.0006758C 
97 -0.0010408C 
98 -0.0139329C 
99 -0.0829650C 
1000.05135079C 


$$$$
