
     RDKit          3D

 11 11  0  0  0  0  0  0  0  0999 V2000
    3.1334    0.2728    0.6775 O   0  0  0  0  0  0  0  0  0  0  0  0
    2.0810   -0.5853    0.9856 C   0  0  0  0  0  0  0  0  0  0  0  0
    1.1523   -0.7271   -0.1759 C   0  0  1  0  0  0  0  0  0  0  0  0
    0.0855   -1.6230    0.1970 N   0  0  0  0  0  0  0  0  0  0  0  0
   -0.8129   -0.8818    1.0885 C   0  0  0  0  0  0  0  0  0  0  0  0
   -1.6187    0.1183    0.2556 C   0  0  2  0  0  0  0  0  0  0  0  0
   -2.9162   -0.3228    0.0470 O   0  0  0  0  0  0  0  0  0  0  0  0
   -0.8538    0.3671   -0.9993 C   0  0  1  0  0  0  0  0  0  0  0  0
   -1.3703    1.3325   -1.8180 O   0  0  0  0  0  0  0  0  0  0  0  0
    0.5974    0.6374   -0.6010 C   0  0  1  0  0  0  0  0  0  0  0  0
    0.5224    1.4120    0.5729 O   0  0  0  0  0  0  0  0  0  0  0  0
  1  2  1  0
  3  2  1  1
  3  4  1  0
  4  5  1  0
  5  6  1  0
  6  7  1  6
  6  8  1  0
  8  9  1  1
  8 10  1  0
 10 11  1  1
 10  3  1  0
M  END
>  <fragInfo>  (1) 
3 4 5 6 7 8 9 10 11
1 2


>  <torsionInfo>  (1) 
2 3 1 0


>  <atomInfo>  (1) 
1  -0.3946490OA
2  0.06105637C 
3  0.05902457C 
4  -0.3067635NA
5  0.02436730C 
6  0.09488935C 
7  -0.3889905OA
8  0.10855016C 
9  -0.3875979OA
10 0.09995681C 
11 -0.3885947OA


$$$$
