
     RDKit          3D

 21 21  0  0  0  0  0  0  0  0999 V2000
   -2.1090   -1.8983   -3.0395 C   0  0  0  0  0  0  0  0  0  0  0  0
   -1.3123   -1.3415   -2.0130 O   0  0  0  0  0  0  0  0  0  0  0  0
   -1.7469   -1.5705   -0.6982 C   0  0  0  0  0  0  0  0  0  0  0  0
   -2.8957   -2.3036   -0.4256 C   0  0  0  0  0  0  0  0  0  0  0  0
   -3.2969   -2.5120    0.8791 C   0  0  0  0  0  0  0  0  0  0  0  0
   -2.5210   -1.9703    1.8838 C   0  0  0  0  0  0  0  0  0  0  0  0
   -1.3709   -1.2368    1.6041 C   0  0  0  0  0  0  0  0  0  0  0  0
   -0.9670   -1.0266    0.2923 C   0  0  0  0  0  0  0  0  0  0  0  0
    0.2520   -0.2492   -0.0458 C   0  0  0  0  0  0  0  0  0  0  0  0
   -0.0427    1.1368   -0.5446 C   0  0  2  0  0  0  0  0  0  0  0  0
    1.3185    1.7832   -0.8398 C   0  0  0  0  0  0  0  0  0  0  0  0
    2.0601    1.7834    0.4477 C   0  0  0  0  0  0  0  0  0  0  0  0
    3.2198    1.1549    0.6136 C   0  0  0  0  0  0  0  0  0  0  0  0
    3.8212    0.4106   -0.5304 C   0  0  0  0  0  0  0  0  0  0  0  0
    3.9814   -1.0662   -0.1794 C   0  0  0  0  0  0  0  0  0  0  0  0
    4.5871   -1.7850   -1.3550 C   0  0  0  0  0  0  0  0  0  0  0  0
    3.6755   -1.6438   -2.5697 C   0  0  0  0  0  0  0  0  0  0  0  0
   -0.6277    1.9101    0.5849 C   0  0  0  0  0  0  0  0  0  0  0  0
   -1.0648    3.1006    0.4937 N   0  0  0  0  0  0  0  0  0  0  0  0
   -1.5930    3.6574    1.7327 C   0  0  0  0  0  0  0  0  0  0  0  0
   -3.3676    3.6666    1.5465 Cl  0  0  0  0  0  0  0  0  0  0  0  0
  1  2  1  0
  2  3  1  0
  3  4  2  0
  4  5  1  0
  5  6  2  0
  6  7  1  0
  7  8  2  0
  8  9  1  0
 10  9  1  1
 10 11  1  0
 11 12  1  0
 12 13  2  3
 13 14  1  0
 14 15  1  0
 15 16  1  0
 16 17  1  0
 10 18  1  0
 18 19  2  3
 19 20  1  0
 20 21  1  0
  8  3  1  0
M  END
>  <fragInfo>  (1) 
3 4 5 6 7 8
1 2
9
10
11
12 13
14
15
16 17
18 19
20 21


>  <torsionInfo>  (1) 
2 3 1 0
8 9 0 2
9 10 2 3
10 11 3 4
10 18 3 9
11 12 4 5
13 14 5 6
14 15 6 7
15 16 7 8
19 20 9 10


>  <atomInfo>  (1) 
1  0.07752208C 
2  -0.4964777OA
3  0.12156743A 
4  -0.0196949A 
5  -0.0585650A 
6  -0.0617243A 
7  -0.0553278A 
8  -0.0052591A 
9  -0.0161086C 
10 0.00145794C 
11 -0.0269312C 
12 -0.0878855C 
13 -0.0885167C 
14 -0.0350831C 
15 -0.0500876C 
16 -0.0558767C 
17 -0.0653714C 
18 0.00390072C 
19 -0.2811979NA
20 0.11247951C 
21 -0.1009402Cl


$$$$
