
     RDKit          3D

 66 70  0  0  0  0  0  0  0  0999 V2000
   -9.3683    1.8468   -2.0218 C   0  0  0  0  0  0  0  0  0  0  0  0
   -8.6095    3.0281   -1.9927 O   0  0  0  0  0  0  0  0  0  0  0  0
   -9.3748    4.0628   -1.4468 C   0  0  0  0  0  3  0  0  0  0  0  0
   -9.5890    3.9284   -0.0847 O   0  0  0  0  0  0  0  0  0  0  0  0
  -10.5047    2.9599    0.1483 C   0  0  2  0  0  0  0  0  0  0  0  0
  -11.8476    3.4785    0.5898 C   0  0  0  0  0  0  0  0  0  0  0  0
  -12.7580    2.2725    0.7523 C   0  0  0  0  0  2  0  0  0  0  0  0
  -10.0303    1.8313    1.0758 C   0  0  1  0  0  0  0  0  0  0  0  0
  -10.3144    0.5251    0.3247 C   0  0  0  0  0  3  0  0  0  0  0  0
   -8.8570    0.4566    0.0208 C   0  0  1  0  0  0  0  0  0  0  0  0
   -8.5081    0.7999   -1.4038 C   0  0  2  0  0  0  0  0  0  0  0  0
   -7.0322    1.1823   -1.4250 C   0  0  0  0  0  0  0  0  0  0  0  0
   -8.6181   -0.5145   -2.1562 C   0  0  0  0  0  0  0  0  0  0  0  0
   -8.4290   -1.5868   -1.0350 C   0  0  1  0  0  0  0  0  0  0  0  0
   -9.3765   -2.4306   -1.0061 O   0  0  0  0  0  0  0  0  0  0  0  0
   -9.1619   -3.7641   -0.8479 C   0  0  2  0  0  0  0  0  0  0  0  0
  -10.4921   -4.3976   -0.8661 O   0  0  0  0  0  0  0  0  0  0  0  0
   -8.6502   -4.1653    0.5505 C   0  0  0  0  0  3  0  0  0  0  0  0
   -8.7526   -5.5591    0.6790 O   0  0  0  0  0  0  0  0  0  0  0  0
   -8.5379    1.5770    0.9715 C   0  0  2  0  0  0  0  0  0  0  0  0
   -7.9540    0.8916    2.1893 C   0  0  0  0  0  3  0  0  0  0  0  0
   -6.8636   -0.0630    1.5805 C   0  0  2  0  0  0  0  0  0  0  0  0
   -7.4219   -1.1536    1.0347 O   0  0  0  0  0  0  0  0  0  0  0  0
   -7.1181   -1.3903   -0.3781 C   0  0  1  0  0  0  0  0  0  0  0  0
   -6.6689   -2.7645   -0.3045 O   0  0  0  0  0  0  0  0  0  0  0  0
   -5.4626   -2.9243   -1.0405 C   0  0  0  0  0  3  0  0  0  0  0  0
   -5.6506   -4.4328   -1.5167 C   0  0  0  0  0  2  0  0  0  0  0  0
   -6.0837   -0.4899    2.8530 C   0  0  0  0  0  3  0  0  0  0  0  0
   -4.7698   -0.7794    2.5895 O   0  0  0  0  0  0  0  0  0  0  0  0
   -4.4333   -0.3756    1.3684 O   0  0  0  0  0  0  0  0  0  0  0  0
   -3.3545   -1.1704    0.9457 C   0  0  0  0  0  3  0  0  0  0  0  0
   -2.7737   -0.6541   -0.1939 O   0  0  0  0  0  0  0  0  0  0  0  0
   -1.8282    0.3382    0.0972 C   0  0  0  0  0  3  0  0  0  0  0  0
   -0.5451   -0.2050    0.2505 O   0  0  0  0  0  0  0  0  0  0  0  0
    0.1651   -0.0924   -0.9471 C   0  0  0  0  0  3  0  0  0  0  0  0
    0.5991    1.1994   -1.1917 O   0  0  0  0  0  0  0  0  0  0  0  0
    0.9179    1.8233    0.0196 C   0  0  0  0  0  3  0  0  0  0  0  0
    1.9182    1.0644    0.6241 O   0  0  0  0  0  0  0  0  0  0  0  0
    2.7809    0.6316   -0.3895 C   0  0  0  0  0  3  0  0  0  0  0  0
    3.8871    1.4842   -0.3634 O   0  0  0  0  0  0  0  0  0  0  0  0
    4.5103    1.3160    0.8669 C   0  0  0  0  0  3  0  0  0  0  0  0
    5.3590    0.2245    0.8046 O   0  0  0  0  0  0  0  0  0  0  0  0
    5.0166   -0.5582   -0.2919 C   0  0  0  0  0  3  0  0  0  0  0  0
    5.9037   -1.5815   -0.4172 O   0  0  0  0  0  0  0  0  0  0  0  0
    7.2498   -1.2328   -0.1698 C   0  0  0  0  0  3  0  0  0  0  0  0
    7.6177   -0.2419   -1.2087 C   0  0  0  0  0  0  0  0  0  0  0  0
    7.8164    1.0233   -0.7862 O   0  0  0  0  0  0  0  0  0  0  0  0
    8.9218    1.0705    0.0490 C   0  0  1  0  0  0  0  0  0  0  0  0
    8.8406    0.2749    1.1442 O   0  0  0  0  0  0  0  0  0  0  0  0
   10.0106    0.0583    1.7304 O   0  0  0  0  0  0  0  0  0  0  0  0
   10.2273   -1.3173    1.7338 C   0  0  0  0  0  3  0  0  0  0  0  0
   11.5367   -1.6719    1.3915 O   0  0  0  0  0  0  0  0  0  0  0  0
   11.4772   -2.7627    0.6612 O   0  0  0  0  0  0  0  0  0  0  0  0
   10.7014   -2.5514   -0.4328 C   0  0  2  0  0  0  0  0  0  0  0  0
   10.7134   -3.6571   -1.2593 O   0  0  0  0  0  0  0  0  0  0  0  0
   11.0742   -1.3465   -1.2415 C   0  0  1  0  0  0  0  0  0  0  0  0
   10.0572   -0.4628   -1.4125 O   0  0  0  0  0  0  0  0  0  0  0  0
   10.1041    0.7380   -0.8629 C   0  0  1  0  0  0  0  0  0  0  0  0
   10.0115    1.7896   -1.9926 C   0  0  0  0  0  3  0  0  0  0  0  0
    9.5355    3.3521   -1.2375 S   0  0  0  0  0  0  0  0  0  0  0  0
   10.8270    3.7425    0.0195 C   0  0  0  0  0  3  0  0  0  0  0  0
   12.0413    3.3543   -0.4705 O   0  0  0  0  0  0  0  0  0  0  0  0
   12.7518    2.7295    0.5161 O   0  0  0  0  0  0  0  0  0  0  0  0
   12.7363    1.2556    0.5013 C   0  0  0  0  0  0  0  0  0  0  0  0
   12.2426    0.7118   -0.6342 C   0  0  0  0  0  0  0  0  0  0  0  0
   12.1878   -0.7254   -0.6845 O   0  0  0  0  0  0  0  0  0  0  0  0
  1  2  1  0
  2  3  1  0
  3  4  1  0
  4  5  1  0
  5  6  1  1
  6  7  1  0
  5  8  1  0
  8  9  1  6
 10  9  1  6
 10 11  1  0
 11 12  1  1
 11 13  1  0
 13 14  1  0
 14 15  1  6
 15 16  1  0
 16 17  1  1
 16 18  1  0
 18 19  1  0
  8 20  1  0
 20 21  1  1
 21 22  1  0
 22 23  1  0
 23 24  1  0
 24 25  1  1
 25 26  1  0
 26 27  1  0
 22 28  1  1
 28 29  1  0
 29 30  1  0
 30 31  1  0
 31 32  1  0
 32 33  1  0
 33 34  1  0
 34 35  1  0
 35 36  1  0
 36 37  1  0
 37 38  1  0
 38 39  1  0
 39 40  1  0
 40 41  1  0
 41 42  1  0
 42 43  1  0
 43 44  1  0
 44 45  1  0
 45 46  1  0
 46 47  1  0
 48 47  1  6
 48 49  1  0
 49 50  1  0
 50 51  1  0
 51 52  1  0
 52 53  1  0
 53 54  1  0
 54 55  1  6
 54 56  1  0
 56 57  1  0
 57 58  1  0
 58 59  1  6
 59 60  1  0
 60 61  1  0
 61 62  1  0
 62 63  1  0
 63 64  1  0
 64 65  2  3
 65 66  1  0
 11  1  1  0
 20 10  1  0
 24 14  1  0
 58 48  1  0
 56 66  1  1
M  RAD  8   3   2   7   3   9   2  18   2  21   2  26   2  27   3  28   2
M  RAD  8  31   2  33   2  35   2  37   2  39   2  41   2  43   2  45   2
M  RAD  3  51   2  59   2  61   2
M  END
>  <fragInfo>  (1) 
48 49 50 51 52 53 54 55 56 57 58 59 60 61 62 63 64 65 66
1 2 3 4 5 8 9 10 11 12 13 14 20 21 22 23 24
6 7
15
16 17
18 19
25
26 27
28
29
30
31
32
33
34
35
36
37
38
39
40
41
42
43
44
45
46
47


>  <torsionInfo>  (1) 
47 48 27 0
5 6 1 2
14 15 1 3
22 28 1 8
24 25 1 6
15 16 3 4
16 18 4 5
25 26 6 7
28 29 8 9
29 30 9 10
30 31 10 11
31 32 11 12
32 33 12 13
33 34 13 14
34 35 14 15
35 36 15 16
36 37 16 17
37 38 17 18
38 39 18 19
39 40 19 20
40 41 20 21
41 42 21 22
42 43 22 23
43 44 23 24
44 45 24 25
45 46 25 26
46 47 26 27


>  <atomInfo>  (1) 
1  0.05571404C 
2  -0.3473818OA
3  0.20924319C 
4  -0.3442981OA
5  0.06454079C 
6  -0.0229077C 
7  -0.0325206C 
8  -0.0079256C 
9  -0.0285731C 
10 -0.0266240C 
11 -0.0029204C 
12 -0.0570444C 
13 -0.0136585C 
14 0.11226047C 
15 -0.3414797OA
16 0.18367880C 
17 -0.3657298OA
18 0.13539957C 
19 -0.3848890OA
20 -0.0262896C 
21 -0.0028551C 
22 0.09640345C 
23 -0.3434338OA
24 0.18426235C 
25 -0.3436617OA
26 0.09089591C 
27 -0.0007137C 
28 0.15130300C 
29 -0.2246849OA
30 -0.1981210OA
31 0.24786802C 
32 -0.3102719OA
33 0.21472805C 
34 -0.3128061OA
35 0.21461567C 
36 -0.3128081OA
37 0.21461565C 
38 -0.3128081OA
39 0.21461565C 
40 -0.3128081OA
41 0.21461378C 
42 -0.3128961OA
43 0.21225794C 
44 -0.3392513OA
45 0.11280826C 
46 0.07903135C 
47 -0.3447963OA
48 0.21875343C 
49 -0.1985526OA
50 -0.1926035OA
51 0.28008182C 
52 -0.1924651OA
53 -0.1947071OA
54 0.25160908C 
55 -0.3608768OA
56 0.25363024C 
57 -0.3287012OA
58 0.12884010C 
59 0.05380102C 
60 -0.1148616SA
61 0.19001191C 
62 -0.1706613OA
63 -0.3409272OA
64 0.16366889C 
65 0.12535096C 
66 -0.4634791OA


$$$$
