
     RDKit          3D

 31 31  0  0  0  0  0  0  0  0999 V2000
   -1.1139    1.8255   -0.1192 C   0  0  0  0  0  0  0  0  0  0  0  0
   -1.0212    3.1809   -0.7865 C   0  0  1  0  0  0  0  0  0  0  0  0
   -2.3866    3.8372   -0.9209 C   0  0  0  0  0  0  0  0  0  0  0  0
   -0.1953    4.0644    0.1491 C   0  0  0  0  0  0  0  0  0  0  0  0
    1.1724    4.3292   -0.4454 C   0  0  0  0  0  0  0  0  0  0  0  0
    2.2725    3.8779    0.5203 C   0  0  0  0  0  0  0  0  0  0  0  0
    3.2768    3.1104   -0.3147 C   0  0  1  0  0  0  0  0  0  0  0  0
    4.6940    3.5597    0.0435 C   0  0  0  0  0  0  0  0  0  0  0  0
    3.1099    1.6162   -0.0217 C   0  0  0  0  0  3  0  0  0  0  0  0
    4.4597    0.9199   -0.1229 C   0  0  0  0  0  0  0  0  0  0  0  0
    4.4072   -0.2899    0.8029 C   0  0  0  0  0  0  0  0  0  0  0  0
    4.1325   -1.5552    0.0533 C   0  0  2  0  0  0  0  0  0  0  0  0
    3.2691   -1.3450   -1.0937 N   0  0  0  0  0  0  0  0  0  0  0  0
    3.5072   -2.5803    0.9744 C   0  0  0  0  0  0  0  0  0  0  0  0
    2.4822   -3.4210    0.2363 C   0  0  1  0  0  0  0  0  0  0  0  0
    2.2671   -4.7048    1.0194 C   0  0  0  0  0  0  0  0  0  0  0  0
    1.1507   -2.7044    0.1303 C   0  0  0  0  0  0  0  0  0  0  0  0
    0.0934   -3.7586   -0.1143 C   0  0  0  0  0  0  0  0  0  0  0  0
   -1.2896   -3.1204   -0.2158 C   0  0  1  0  0  0  0  0  0  0  0  0
   -1.4375   -2.4880   -1.4396 O   0  0  0  0  0  0  0  0  0  0  0  0
   -2.2934   -4.2638   -0.1527 C   0  0  0  0  0  0  0  0  0  0  0  0
   -1.5570   -2.2173    0.9522 C   0  0  1  0  0  0  0  0  0  0  0  0
   -0.4287   -1.8335    1.6252 F   0  0  0  0  0  0  0  0  0  0  0  0
   -2.4740   -1.0963    0.5960 C   0  0  0  0  0  0  0  0  0  0  0  0
   -2.0791   -0.3555   -0.6520 C   0  0  0  0  0  2  0  0  0  0  0  0
   -2.3967    1.1103   -0.4737 C   0  0  2  0  0  0  0  0  0  0  0  0
   -3.0225    1.7557   -2.0462 S   0  0  0  0  0  0  0  0  0  0  0  0
   -3.3635    1.2662    0.6457 C   0  0  0  0  0  0  0  0  0  0  0  0
   -4.6576    0.6102    0.4187 C   0  0  0  0  0  0  0  0  0  0  0  0
   -5.6541    0.6962    1.4233 N   0  0  0  0  0  0  0  0  0  0  0  0
   -4.9242   -0.0258   -0.6274 O   0  0  0  0  0  0  0  0  0  0  0  0
  1  2  1  0
  2  3  1  1
  2  4  1  0
  4  5  1  0
  5  6  1  0
  6  7  1  0
  7  8  1  1
  7  9  1  0
  9 10  1  0
 10 11  1  0
 11 12  1  0
 12 13  1  6
 12 14  1  0
 14 15  1  0
 15 16  1  1
 15 17  1  0
 17 18  1  0
 18 19  1  0
 19 20  1  0
 19 21  1  6
 19 22  1  0
 22 23  1  6
 22 24  1  0
 24 25  1  0
 25 26  1  0
 26 27  1  6
 26 28  1  0
 28 29  1  0
 29 30  1  0
 29 31  2  0
 26  1  1  0
M  RAD  2   9   2  25   3
M  END
>  <fragInfo>  (1) 
1 2 3 4 5 6 7 8 9 10 11 12 13 14 15 16 17 18 19 20 21 22 23 24 25 26 27
28
29 30 31


>  <torsionInfo>  (1) 
26 28 0 1
28 29 1 2


>  <atomInfo>  (1) 
1  -0.0349978C 
2  -0.0429309C 
3  -0.0624589C 
4  -0.0506503C 
5  -0.0527873C 
6  -0.0504264C 
7  -0.0411595C 
8  -0.0622342C 
9  -0.0356921C 
10 -0.0484449C 
11 -0.0376945C 
12 0.00414199C 
13 -0.3277012NA
14 -0.0353974C 
15 -0.0427013C 
16 -0.0624501C 
17 -0.0478186C 
18 -0.0212875C 
19 0.09301800C 
20 -0.3871506OA
21 -0.0331916C 
22 0.12901103C 
23 -0.2443058F 
24 -0.0105703C 
25 0.00349632C 
26 0.02888530C 
27 -0.1713223SA
28 0.04133863C 
29 0.21832821C 
30 -0.3696347N 
31 -0.2753152OA


$$$$
