
     RDKit          3D

 30 30  0  0  0  0  0  0  0  0999 V2000
    4.8067    2.2790   -0.1470 C   0  0  0  0  0  0  0  0  0  0  0  0
    5.6897    1.1482   -0.6242 C   0  0  0  0  0  0  0  0  0  0  0  0
    7.1038    1.2653   -0.1121 C   0  0  0  0  0  0  0  0  0  0  0  0
    5.1214   -0.2084   -0.2815 C   0  0  0  0  0  0  0  0  0  0  0  0
    3.7625   -0.3438   -0.9462 C   0  0  0  0  0  0  0  0  0  0  0  0
    3.1277   -1.6636   -0.6568 C   0  0  0  0  0  0  0  0  0  0  0  0
    2.8883   -1.9365    0.7903 C   0  0  1  0  0  0  0  0  0  0  0  0
    4.1194   -1.9406    1.6352 C   0  0  0  0  0  0  0  0  0  0  0  0
    1.8135   -1.1082    1.4108 C   0  0  1  0  0  0  0  0  0  0  0  0
    2.1066    0.3566    1.3326 C   0  0  0  0  0  0  0  0  0  0  0  0
    1.1232    0.9785    0.3428 C   0  0  0  0  0  0  0  0  0  0  0  0
    0.1859    1.8524    1.1460 C   0  0  2  0  0  0  0  0  0  0  0  0
   -0.9618    0.9999    1.6498 C   0  0  0  0  0  0  0  0  0  0  0  0
   -0.2988    2.9578    0.2370 C   0  0  0  0  0  3  0  0  0  0  0  0
   -1.0031    2.3797   -0.9564 C   0  0  0  0  0  0  0  0  0  0  0  0
   -2.4876    2.5527   -0.8233 C   0  0  2  0  0  0  0  0  0  0  0  0
   -2.8213    3.1840    0.4404 N   0  0  0  0  0  1  0  0  0  0  0  0
   -3.2248    1.2347   -0.9334 C   0  0  0  0  0  0  0  0  0  0  0  0
   -4.3533    1.2428    0.0446 C   0  0  0  0  0  3  0  0  0  0  0  0
   -4.9198   -0.1304    0.3064 C   0  0  1  0  0  0  0  0  0  0  0  0
   -4.6466   -0.4844    1.6343 O   0  0  0  0  0  0  0  0  0  0  0  0
   -6.4252   -0.0267    0.1615 C   0  0  0  0  0  0  0  0  0  0  0  0
   -4.4071   -1.1697   -0.6369 C   0  0  0  0  0  0  0  0  0  0  0  0
   -3.6157   -2.2542    0.0567 C   0  0  0  0  0  3  0  0  0  0  0  0
   -2.2351   -1.7712    0.1509 N   0  0  0  0  0  0  0  0  0  0  0  0
   -1.3747   -2.4703   -0.7907 C   0  0  0  0  0  3  0  0  0  0  0  0
   -0.5739   -1.4226   -1.5366 C   0  0  0  0  0  0  0  0  0  0  0  0
    0.6806   -1.0919   -0.7570 C   0  0  0  0  0  0  0  0  0  0  0  0
    0.5007   -1.4618    0.7075 C   0  0  1  0  0  0  0  0  0  0  0  0
    0.3186   -2.9472    0.8149 C   0  0  0  0  0  2  0  0  0  0  0  0
  1  2  1  0
  2  3  1  0
  2  4  1  0
  4  5  1  0
  5  6  1  0
  6  7  1  0
  7  8  1  1
  7  9  1  0
  9 10  1  6
 10 11  1  0
 11 12  1  0
 12 13  1  6
 12 14  1  0
 14 15  1  0
 15 16  1  0
 16 17  1  1
 16 18  1  0
 18 19  1  0
 19 20  1  0
 20 21  1  0
 20 22  1  1
 20 23  1  0
 23 24  1  0
 24 25  1  0
 25 26  1  0
 26 27  1  0
 27 28  1  0
 28 29  1  0
 29 30  1  6
 29  9  1  0
M  CHG  1  17   1
M  RAD  6  14   2  17   2  19   2  24   2  26   2  30   3
M  END
>  <fragInfo>  (1) 
9 10 11 12 13 14 15 16 17 18 19 20 21 22 23 24 25 26 27 28 29 30
1 2 3
4
5
6
7 8


>  <torsionInfo>  (1) 
7 9 5 0
2 4 1 2
4 5 2 3
5 6 3 4
6 7 4 5


>  <atomInfo>  (1) 
1  -0.0627736C 
2  -0.0471324C 
3  -0.0627736C 
4  -0.0509643C 
5  -0.0527983C 
6  -0.0504266C 
7  -0.0411598C 
8  -0.0622342C 
9  -0.0357080C 
10 -0.0496537C 
11 -0.0501480C 
12 -0.0409028C 
13 -0.0622298C 
14 -0.0291194C 
15 0.02181213C 
16 0.27722538C 
17 0.42158087N 
18 0.02438212C 
19 -0.0004433C 
20 0.06689533C 
21 -0.3898132OA
22 -0.0357262C 
23 -0.0071235C 
24 0.02524780C 
25 -0.3080149NA
26 0.02241865C 
27 -0.0359551C 
28 -0.0483461C 
29 -0.0348579C 
30 -0.0315042C 


$$$$
