
     RDKit          3D

 25 24  0  0  0  0  0  0  0  0999 V2000
    7.8096   -1.2588    0.0721 C   0  0  0  0  0  0  0  0  0  0  0  0
    7.5453    0.0671   -0.2774 O   0  0  0  0  0  0  0  0  0  0  0  0
    6.2691    0.4305    0.1735 C   0  0  0  0  0  3  0  0  0  0  0  0
    5.3271   -0.2526   -0.5749 O   0  0  0  0  0  0  0  0  0  0  0  0
    4.3776   -0.9274    0.2281 C   0  0  0  0  0  3  0  0  0  0  0  0
    3.3123   -0.1744    0.8955 C   0  0  1  0  0  0  0  0  0  0  0  0
    3.9805    0.8649    1.6430 O   0  0  0  0  0  0  0  0  0  0  0  0
    2.4656    0.7253   -0.0477 C   0  0  1  0  0  0  0  0  0  0  0  0
    3.5851    1.4466   -0.7389 O   0  0  0  0  0  0  0  0  0  0  0  0
    3.0803    2.8278   -0.7738 C   0  0  0  0  0  2  0  0  0  0  0  0
    2.1303   -0.3763   -0.9384 O   0  0  0  0  0  0  0  0  0  0  0  0
    1.3013   -1.2778   -0.3196 C   0  0  0  0  0  3  0  0  0  0  0  0
    0.4830   -0.6790    0.8831 C   0  0  0  0  0  3  0  0  0  0  0  0
    0.1127    0.5380    0.2770 O   0  0  0  0  0  0  0  0  0  0  0  0
   -0.6472    0.1538   -0.9203 C   0  0  0  0  0  0  0  0  0  0  0  0
   -1.9611   -0.3789   -0.5494 C   0  0  0  0  0  0  0  0  0  0  0  0
   -2.1521   -1.5858    0.2405 C   0  0  0  0  0  0  0  0  0  0  0  0
   -3.5163   -1.6165    0.6197 O   0  0  0  0  0  0  0  0  0  0  0  0
   -4.4304   -1.5077   -0.3218 C   0  0  0  0  0  3  0  0  0  0  0  0
   -5.2320   -0.1961   -0.1245 C   0  0  0  0  0  3  0  0  0  0  0  0
   -6.4415   -0.4243    0.5850 N   0  0  0  0  0  3  0  0  0  0  0  0
   -7.4981   -0.8395   -0.2141 N   0  0  0  0  0  1  0  0  0  0  0  0
   -6.9348    0.8042    1.2933 C   0  0  0  0  0  0  0  0  0  0  0  0
   -6.2039    1.8110    0.4711 N   0  0  0  0  0  0  0  0  0  0  0  0
   -6.7625    1.8261   -0.8370 C   0  0  0  0  0  2  0  0  0  0  0  0
  1  2  1  0
  2  3  1  0
  3  4  1  0
  4  5  1  0
  5  6  1  0
  6  7  1  1
  6  8  1  0
  8  9  1  6
  9 10  1  0
  8 11  1  0
 11 12  1  0
 12 13  1  0
 13 14  1  0
 14 15  1  0
 15 16  1  0
 16 17  1  0
 17 18  1  0
 18 19  1  0
 19 20  1  0
 20 21  1  0
 21 22  1  0
 21 23  1  0
 23 24  1  0
 24 25  1  0
M  RAD  8   3   2   5   2  10   3  12   2  13   2  19   2  20   2  21   2
M  CHG  2  21   1  22   1
M  RAD  2  22   2  25   3
M  END
>  <fragInfo>  (1) 
1 2
3
4
5
6 7
8
9 10
11
12
13
14
15
16
17
18
19
20
21 22
23
24 25


>  <torsionInfo>  (1) 
2 3 0 1
3 4 1 2
4 5 2 3
5 6 3 4
6 8 4 5
8 9 5 6
8 11 5 7
11 12 7 8
12 13 8 9
13 14 9 10
14 15 10 11
15 16 11 12
16 17 12 13
17 18 13 14
18 19 14 15
19 20 15 16
20 21 16 17
21 23 17 18
23 24 18 19


>  <atomInfo>  (1) 
1  0.03885653C 
2  -0.3513289OA
3  0.20913280C 
4  -0.3387996OA
5  0.12071263C 
6  0.13368827C 
7  -0.3849719OA
8  0.18676403C 
9  -0.3409396OA
10 0.11858719C 
11 -0.3409419OA
12 0.11845518C 
13 0.11516282C 
14 -0.3724845OA
15 0.04940214C 
16 -0.0059255C 
17 0.04961168C 
18 -0.3681377OA
19 0.15999951C 
20 0.30358095C 
21 0.24072952N 
22 0.81179240N 
23 0.25290234C 
24 -0.2547424NA
25 0.04649952C 


$$$$
