
     RDKit          3D

 23 25  0  0  0  0  0  0  0  0999 V2000
   -2.8631   -2.6320   -0.2751 C   0  0  0  0  0  0  0  0  0  0  0  0
   -2.5767   -1.2968   -0.9425 C   0  0  1  0  0  0  0  0  0  0  0  0
   -3.5336   -0.2947   -0.3684 C   0  0  0  0  0  0  0  0  0  0  0  0
   -2.9670    0.9312    0.2016 C   0  0  2  0  0  0  0  0  0  0  0  0
   -2.8683    1.9134   -0.7855 O   0  0  0  0  0  0  0  0  0  0  0  0
   -1.6609    0.8293    0.9239 C   0  0  2  0  0  0  0  0  0  0  0  0
   -0.8378    1.8708    0.6375 O   0  0  0  0  0  0  0  0  0  0  0  0
   -1.0684   -0.5293    0.7806 C   0  0  1  0  0  0  0  0  0  0  0  0
   -1.6586   -1.4813    1.5951 O   0  0  0  0  0  0  0  0  0  0  0  0
   -1.2239   -0.8748   -0.6974 C   0  0  1  0  0  0  0  0  0  0  0  0
   -0.1235   -1.7028   -1.0565 N   0  0  0  0  0  0  0  0  0  0  0  0
    0.9691   -1.0069   -0.4802 C   0  0  1  0  0  0  0  0  0  0  0  0
    1.5501   -1.5715    0.7641 C   0  0  0  0  0  0  0  0  0  0  0  0
    2.0257   -0.3054    1.5084 C   0  0  0  0  0  3  0  0  0  0  0  0
    2.5258   -0.7090    2.7344 O   0  0  0  0  0  0  0  0  0  0  0  0
    0.8419    0.5469    1.7034 C   0  0  0  0  0  3  0  0  0  0  0  0
    0.5338    1.5873    0.7410 C   0  0  1  0  0  0  0  0  0  0  0  0
    1.0716    1.5197   -0.6227 C   0  0  1  0  0  0  0  0  0  0  0  0
    1.1515    2.8124   -1.1487 O   0  0  0  0  0  0  0  0  0  0  0  0
    2.3734    0.8447   -0.8285 C   0  0  2  0  0  0  0  0  0  0  0  0
    3.1207    1.4743   -1.8238 O   0  0  0  0  0  0  0  0  0  0  0  0
    2.0450   -0.5549   -1.3949 C   0  0  1  0  0  0  0  0  0  0  0  0
    3.1732   -1.3705   -1.1657 O   0  0  0  0  0  0  0  0  0  0  0  0
  2  1  1  1
  2  3  1  0
  3  4  1  0
  4  5  1  6
  4  6  1  0
  6  7  1  6
  6  8  1  0
  8  9  1  1
  8 10  1  0
 10 11  1  1
 11 12  1  0
 12 13  1  1
 13 14  1  0
 14 15  1  0
 14 16  1  0
 17 16  1  6
 17 18  1  0
 18 19  1  1
 18 20  1  0
 20 21  1  6
 20 22  1  0
 22 23  1  1
 10  2  1  0
 17  7  1  0
 22 12  1  0
M  RAD  2  14   2  16   2
M  END
>  <fragInfo>  (1) 
1 2 3 4 5 6 7 8 9 10 11 12 13 14 15 16 17 18 19 20 21 22 23


>  <torsionInfo>  (1) 


>  <atomInfo>  (1) 
1  -0.0608233C 
2  -0.0236274C 
3  -0.0201650C 
4  0.08309590C 
5  -0.3903048OA
6  0.11122357C 
7  -0.3663012OA
8  0.09822475C 
9  -0.3886683OA
10 0.03844393C 
11 -0.3055286NA
12 0.03862828C 
13 -0.0027784C 
14 0.10116172C 
15 -0.3863956OA
16 0.02779558C 
17 0.09278795C 
18 0.10898034C 
19 -0.3875850OA
20 0.10978238C 
21 -0.3875443OA
22 0.09788580C 
23 -0.3886863OA


$$$$
