
     RDKit          2D

 44 51  0  0  0  0  0  0  0  0999 V2000
   -6.1621    9.6467    0.0000 O   0  0  0  0  0  0  0  0  0  0  0  0
   -5.6523    8.2360    0.0000 C   0  0  0  0  0  0  0  0  0  0  0  0
   -6.8622    7.3494    0.0000 N   0  0  0  0  0  0  0  0  0  0  0  0
   -7.4007    5.9494    0.0000 C   0  0  0  0  0  0  0  0  0  0  0  0
   -7.0968    4.4805    0.0000 C   0  0  0  0  0  0  0  0  0  0  0  0
   -8.5496    4.1070    0.0000 C   0  0  0  0  0  0  0  0  0  0  0  0
   -8.9526    2.6622    0.0000 C   0  0  0  0  0  0  0  0  0  0  0  0
   -7.9028    1.5908    0.0000 C   0  0  0  0  0  0  0  0  0  0  0  0
   -8.3058    0.1459    0.0000 O   0  0  0  0  0  0  0  0  0  0  0  0
   -6.4500    1.9642    0.0000 C   0  0  0  0  0  0  0  0  0  0  0  0
   -6.0470    3.4091    0.0000 C   0  0  0  0  0  0  0  0  0  0  0  0
   -4.1551    8.3277    0.0000 C   0  0  0  0  0  0  0  0  0  0  0  0
   -2.8459    7.5955    0.0000 O   0  0  0  0  0  0  0  0  0  0  0  0
   -2.1405    6.2717    0.0000 S   0  0  0  0  0  0  0  0  0  0  0  0
   -2.2628    4.7767    0.0000 C   0  0  0  0  0  0  0  0  0  0  0  0
   -3.1739    3.5851    0.0000 C   0  0  0  0  0  0  0  0  0  0  0  0
   -4.5846    3.0753    0.0000 C   0  0  0  0  0  0  0  0  0  0  0  0
   -4.0015    4.5246    0.0000 C   0  0  0  0  0  0  0  0  0  0  0  0
   -2.0668    6.0076    0.0000 C   0  0  0  0  0  0  0  0  0  0  0  0
   -1.2294    7.4633    0.0000 C   0  0  0  0  0  0  0  0  0  0  0  0
    0.1813    7.9731    0.0000 C   0  0  0  0  0  0  0  0  0  0  0  0
    1.6437    7.6393    0.0000 C   0  0  0  0  0  0  0  0  0  0  0  0
    2.6935    6.5679    0.0000 O   0  0  0  0  0  0  0  0  0  0  0  0
    2.9973    5.0990    0.0000 S   0  0  0  0  0  0  0  0  0  0  0  0
    2.4588    3.6990    0.0000 C   0  0  0  0  0  0  0  0  0  0  0  0
    1.0777    2.8515    0.0000 S   0  0  0  0  0  0  0  0  0  0  0  0
   -0.0950    3.7867    0.0000 C   0  0  0  0  0  0  0  0  0  0  0  0
   -1.5574    3.4529    0.0000 C   0  0  0  0  0  0  0  0  0  0  0  0
   -2.2082    2.1015    0.0000 N   0  0  0  0  0  0  0  0  0  0  0  0
   -1.5574    0.7500    0.0000 S   0  0  0  0  0  0  0  0  0  0  0  0
   -0.3846    1.6852    0.0000 C   0  0  0  0  0  0  0  0  0  0  0  0
    1.0777    1.3515    0.0000 C   0  0  0  0  0  0  0  0  0  0  0  0
    1.7286    0.0000    0.0000 O   0  0  0  0  0  0  0  0  0  0  0  0
    1.0777   -1.3515    0.0000 S   0  0  0  0  0  0  0  0  0  0  0  0
   -0.3846   -1.6852    0.0000 O   0  0  0  0  0  0  0  0  0  0  0  0
   -1.5574   -0.7500    0.0000 C   0  0  0  0  0  0  0  0  0  0  0  0
   -0.3846    0.1852    0.0000 C   0  0  0  0  0  0  0  0  0  0  0  0
    0.9668   -0.4656    0.0000 O   0  0  0  0  0  0  0  0  0  0  0  0
    1.0789   -1.9614    0.0000 O   0  0  0  0  0  0  0  0  0  0  0  0
    2.4304   -2.6122    0.0000 C   0  0  0  0  0  0  0  0  0  0  0  0
    2.5425   -4.1080    0.0000 C   0  0  0  0  0  0  0  0  0  0  0  0
    3.8939   -4.7589    0.0000 S   0  0  0  0  0  0  0  0  0  0  0  0
    4.0060   -6.2547    0.0000 O   0  0  0  0  0  0  0  0  0  0  0  0
    5.3575   -6.9055    0.0000 F   0  0  0  0  0  0  0  0  0  0  0  0
  1  2  2  0
  2  3  1  0
  3  4  1  0
  4  5  1  0
  5  6  1  0
  6  7  2  0
  7  8  1  0
  8  9  1  0
  8 10  2  0
 10 11  1  0
  2 12  1  0
 12 13  1  0
 13 14  1  0
 14 15  1  0
 15 16  1  0
 16 17  2  0
 17 18  1  0
 18 19  1  0
 19 20  2  0
 20 21  1  0
 21 22  2  3
 22 23  1  0
 23 24  1  0
 24 25  1  0
 25 26  1  0
 26 27  1  0
 27 28  2  0
 28 29  1  0
 29 30  1  0
 30 31  1  0
 31 32  2  0
 32 33  1  0
 33 34  1  0
 34 35  1  0
 35 36  1  0
 36 37  2  0
 37 38  1  0
 38 39  1  0
 39 40  1  0
 40 41  1  0
 41 42  1  0
 42 43  1  0
 43 44  1  0
 11  5  2  0
 22  7  1  0
 17 11  1  0
 20 14  1  0
 28 15  1  0
 32 26  1  0
 36 30  1  0
 37 31  1  0
M  END
>  <fragInfo>  (1) 
1 2 3 4 5 6 7 8 9 10 11 12 13 14 15 16 17 18 19 20 21 22 23 24 25 26 27 28 29 30 31 32 33 34 35 36 37
38
39
40
41
42
43 44


>  <torsionInfo>  (1) 
37 38 0 1
38 39 1 2
39 40 2 3
40 41 3 4
41 42 4 5
42 43 5 6


>  <atomInfo>  (1) 
1  -0.2723695OA
2  0.24703519C 
3  -0.3499573N 
4  0.04343846C 
5  -0.0202699A 
6  -0.0418355A 
7  0.06031899A 
8  0.12671831A 
9  -0.5071644OA
10 -0.0115644A 
11 -0.0136819A 
12 0.13797577C 
13 -0.3243119OA
14 -0.1076998S 
15 0.07148750C 
16 -0.0608710C 
17 -0.0389296C 
18 -0.0079750C 
19 -0.0660074C 
20 0.01101687C 
21 -0.0039565C 
22 0.14895926C 
23 -0.4241722OA
24 0.06508126SA
25 0.06925529C 
26 -0.1572316S 
27 -0.0202900C 
28 0.04267723C 
29 -0.3407000N 
30 -0.0806769S 
31 0.11193071A 
32 0.18284291A 
33 -0.3657395OA
34 0.24300091S 
35 -0.3612150OA
36 0.22876302A 
37 0.23393842A 
38 -0.3314226OA
39 -0.1872534OA
40 0.10526392C 
41 0.05089715C 
42 0.03962528SA
43 -0.1203724OA
44 -0.0351587F 


$$$$
