
     RDKit          3D

 15 15  0  0  0  0  0  0  0  0999 V2000
   -0.4863   -0.6607   -2.3596 C   0  0  0  0  0  0  0  0  0  0  0  0
   -1.0525    0.1696   -1.2654 C   0  0  1  0  0  0  0  0  0  0  0  0
   -2.3206   -0.4364   -0.7868 C   0  0  0  0  0  0  0  0  0  0  0  0
   -2.8320    0.0297    0.5125 C   0  0  1  0  0  0  0  0  0  0  0  0
   -3.4434   -1.0461    1.1701 O   0  0  0  0  0  0  0  0  0  0  0  0
   -1.8533    0.6406    1.4511 C   0  0  2  0  0  0  0  0  0  0  0  0
   -1.7176    2.0337    1.2538 O   0  0  0  0  0  0  0  0  0  0  0  0
   -0.4685    0.0708    1.1124 C   0  0  1  0  0  0  0  0  0  0  0  0
   -0.6598   -1.3184    0.9922 O   0  0  0  0  0  0  0  0  0  0  0  0
   -0.1311    0.6532   -0.2418 C   0  0  1  0  0  0  0  0  0  0  0  0
    1.2450    0.6812   -0.4508 N   0  0  0  0  0  0  0  0  0  0  0  0
    1.9530   -0.5210   -0.6702 C   0  0  0  0  0  3  0  0  0  0  0  0
    3.2935   -0.1501   -1.2518 C   0  0  0  0  0  0  0  0  0  0  0  0
    4.3211    0.1270   -0.4667 C   0  0  0  0  0  0  0  0  0  0  0  0
    4.1525    0.0725    1.0010 C   0  0  0  0  0  2  0  0  0  0  0  0
  2  1  1  1
  2  3  1  0
  3  4  1  0
  4  5  1  1
  4  6  1  0
  6  7  1  6
  6  8  1  0
  8  9  1  6
  8 10  1  0
 10 11  1  6
 11 12  1  0
 12 13  1  0
 13 14  2  3
 14 15  1  0
 10  2  1  0
M  RAD  2  12   2  15   3
M  END
>  <fragInfo>  (1) 
1 2 3 4 5 6 7 8 9 10
11
12
13 14 15


>  <torsionInfo>  (1) 
10 11 0 1
11 12 1 2
12 13 2 3


>  <atomInfo>  (1) 
1  -0.0608231C 
2  -0.0236189C 
3  -0.0201753C 
4  0.08280077C 
5  -0.3903155OA
6  0.10722539C 
7  -0.3876533OA
8  0.09793870C 
9  -0.3886789OA
10 0.03866888C 
11 -0.3030954NA
12 0.04446826C 
13 -0.0694418C 
14 -0.0825827C 
15 -0.0095205C 


$$$$
