
     RDKit          3D

 38 39  0  0  0  0  0  0  0  0999 V2000
   -1.1870   -4.8004    0.1800 C   0  0  0  0  0  0  0  0  0  0  0  0
   -1.0115   -3.5860   -0.3322 C   0  0  0  0  0  0  0  0  0  0  0  0
   -1.4515   -3.3730   -1.7428 C   0  0  0  0  0  0  0  0  0  0  0  0
   -0.4020   -2.5582    0.5133 C   0  0  0  0  0  3  0  0  0  0  0  0
   -0.9010   -1.1781    0.3525 C   0  0  2  0  0  0  0  0  0  0  0  0
   -2.3292   -0.9214    0.6510 C   0  0  2  0  0  0  0  0  0  0  0  0
   -3.3208   -1.7105   -0.0658 C   0  0  0  0  0  3  0  0  0  0  0  0
   -3.9539   -2.8747    0.4879 C   0  0  0  0  0  0  0  0  0  0  0  0
   -4.6867   -2.5921    1.7644 C   0  0  0  0  0  0  0  0  0  0  0  0
   -5.7554   -1.6075    1.5247 C   0  0  0  0  0  0  0  0  0  0  0  0
   -5.9655   -1.1597    0.4216 O   0  0  0  0  0  0  0  0  0  0  0  0
   -3.8305   -1.0011   -1.2407 C   0  0  0  0  0  0  0  0  0  0  0  0
   -3.1633    0.3757   -1.1780 C   0  0  0  0  0  0  0  0  0  0  0  0
   -2.6200    0.5167    0.2194 C   0  0  1  0  0  0  0  0  0  0  0  0
   -3.6858    1.0486    1.1489 C   0  0  0  0  0  0  0  0  0  0  0  0
   -4.7042    1.8367    0.3245 C   0  0  0  0  0  0  0  0  0  0  0  0
   -3.9484    2.8227   -0.5164 C   0  0  0  0  0  3  0  0  0  0  0  0
   -2.8867    3.3796    0.2728 N   0  0  0  0  0  0  0  0  0  0  0  0
   -2.1995    4.3269   -0.2472 C   0  0  0  0  0  0  0  0  0  0  0  0
   -1.0741    4.9780    0.4827 C   0  0  0  0  0  0  0  0  0  0  0  0
    0.2449    4.3886    0.0226 C   0  0  0  0  0  0  0  0  0  0  0  0
    1.0769    4.1496    1.2851 C   0  0  0  0  0  0  0  0  0  0  0  0
    1.8075    2.8327    1.1225 C   0  0  0  0  0  0  0  0  0  0  0  0
    2.7962    2.8799   -0.0326 C   0  0  1  0  0  0  0  0  0  0  0  0
    4.2004    3.0348    0.5083 C   0  0  0  0  0  0  0  0  0  0  0  0
    2.7445    1.5308   -0.7590 C   0  0  0  0  0  0  0  0  0  0  0  0
    2.9385    0.4747    0.3089 C   0  0  0  0  0  0  0  0  0  0  0  0
    1.8314   -0.5365    0.1761 C   0  0  2  0  0  0  0  0  0  0  0  0
    2.3490   -1.9250   -0.1033 C   0  0  0  0  0  0  0  0  0  0  0  0
    3.1244   -1.8717   -1.4028 C   0  0  0  0  0  0  0  0  0  0  0  0
    4.2571   -0.8891   -1.2123 C   0  0  2  0  0  0  0  0  0  0  0  0
    5.1017   -0.7580   -2.4591 C   0  0  0  0  0  0  0  0  0  0  0  0
    5.0918   -1.4191   -0.0471 C   0  0  0  0  0  0  0  0  0  0  0  0
    6.2308   -0.4153    0.1315 C   0  0  0  0  0  3  0  0  0  0  0  0
    7.1346   -0.7858    1.2270 C   0  0  0  0  0  0  0  0  0  0  0  0
    7.6385   -1.9766    1.4363 C   0  0  0  0  0  3  0  0  0  0  0  0
    0.8966   -0.1676   -0.9124 C   0  0  0  0  0  0  0  0  0  0  0  0
   -0.3880   -0.4685   -0.8307 C   0  0  0  0  0  0  0  0  0  0  0  0
  1  2  2  0
  2  3  1  0
  2  4  1  0
  5  4  1  6
  5  6  1  0
  6  7  1  6
  7  8  1  0
  8  9  1  0
  9 10  1  0
 10 11  2  0
  7 12  1  0
 12 13  1  0
 14 13  1  6
 14 15  1  0
 15 16  1  0
 16 17  1  0
 17 18  1  0
 18 19  2  3
 19 20  1  0
 20 21  1  0
 21 22  1  0
 22 23  1  0
 23 24  1  0
 24 25  1  1
 24 26  1  0
 26 27  1  0
 27 28  1  0
 28 29  1  6
 29 30  1  0
 30 31  1  0
 31 32  1  6
 31 33  1  0
 33 34  1  0
 34 35  1  0
 35 36  2  0
 28 37  1  0
 37 38  2  3
 38  5  1  0
 14  6  1  0
M  RAD  5   4   2   7   2  17   2  34   2  36   2
M  END
>  <fragInfo>  (1) 
5 6 7 12 13 14 15 16 17 18 19 20 21 22 23 24 25 26 27 28 37 38
1 2 3
4
8
9
10 11
29
30
31 32
33
34
35 36


>  <torsionInfo>  (1) 
4 5 2 0
7 8 0 3
28 29 0 6
2 4 1 2
8 9 3 4
9 10 4 5
29 30 6 7
30 31 7 8
31 33 8 9
33 34 9 10
34 35 10 11


>  <atomInfo>  (1) 
1  -0.0998165C 
2  -0.0761939C 
3  -0.0438811C 
4  -0.0071568C 
5  -0.0125469C 
6  -0.0254455C 
7  -0.0196889C 
8  -0.0401097C 
9  0.00356795C 
10 0.11951180C 
11 -0.3034025OA
12 -0.0464682C 
13 -0.0495785C 
14 -0.0373496C 
15 -0.0480240C 
16 -0.0282767C 
17 0.07184889C 
18 -0.2919767NA
19 -0.0008874C 
20 -0.0178591C 
21 -0.0483312C 
22 -0.0527020C 
23 -0.0506989C 
24 -0.0442587C 
25 -0.0625093C 
26 -0.0501507C 
27 -0.0467093C 
28 -0.0233207C 
29 -0.0467089C 
30 -0.0501291C 
31 -0.0436775C 
32 -0.0624877C 
33 -0.0437925C 
34 -0.0164649C 
35 -0.0808329C 
36 -0.0662808C 
37 -0.0851084C 
38 -0.0842136C 


$$$$
