
     RDKit          2D

 49 56  0  0  0  0  0  0  0  0999 V2000
    3.4570    6.2923    0.0000 C   0  0  0  0  0  0  0  0  0  0  0  0
    3.7175    4.8151    0.0000 O   0  0  0  0  0  0  0  0  0  0  0  0
    5.1270    4.3021    0.0000 C   0  0  0  0  0  0  0  0  0  0  0  0
    6.2761    5.2663    0.0000 C   0  0  0  0  0  0  0  0  0  0  0  0
    7.6856    4.7532    0.0000 C   0  0  0  0  0  0  0  0  0  0  0  0
    7.9461    3.2760    0.0000 C   0  0  0  0  0  0  0  0  0  0  0  0
    6.7970    2.3118    0.0000 C   0  0  0  0  0  0  0  0  0  0  0  0
    5.3875    2.8249    0.0000 C   0  0  0  0  0  0  0  0  0  0  0  0
    4.2384    1.8607    0.0000 C   0  0  0  0  0  0  0  0  0  0  0  0
    2.8289    2.3737    0.0000 C   0  0  0  0  0  0  0  0  0  0  0  0
    1.6798    1.4095    0.0000 C   0  0  0  0  0  0  0  0  0  0  0  0
    2.1929    0.0000    0.0000 C   0  0  0  0  0  0  0  0  0  0  0  0
    1.6798   -1.4095    0.0000 C   0  0  0  0  0  0  0  0  0  0  0  0
    0.3808   -2.1595    0.0000 C   0  0  0  0  0  0  0  0  0  0  0  0
   -1.0964   -1.8991    0.0000 C   0  0  0  0  0  0  0  0  0  0  0  0
   -2.0606   -0.7500    0.0000 C   0  0  0  0  0  0  0  0  0  0  0  0
   -3.2334   -1.6852    0.0000 C   0  0  0  0  0  0  0  0  0  0  0  0
   -4.6957   -1.3515    0.0000 C   0  0  0  0  0  0  0  0  0  0  0  0
   -5.3466    0.0000    0.0000 C   0  0  0  0  0  0  0  0  0  0  0  0
   -4.6957    1.3515    0.0000 C   0  0  0  0  0  0  0  0  0  0  0  0
   -3.2334    1.6852    0.0000 C   0  0  0  0  0  0  0  0  0  0  0  0
   -2.0606    0.7500    0.0000 C   0  0  0  0  0  0  0  0  0  0  0  0
   -1.0964    1.8991    0.0000 N   0  0  0  0  0  0  0  0  0  0  0  0
    0.3808    2.1595    0.0000 N   0  0  0  0  0  0  0  0  0  0  0  0
   -0.8847    2.9649    0.0000 C   0  0  0  0  0  0  0  0  0  0  0  0
   -5.0659    2.8051    0.0000 C   0  0  0  0  0  0  0  0  0  0  0  0
   -6.2838    3.6807    0.0000 C   0  0  0  0  0  0  0  0  0  0  0  0
   -7.7796    3.5686    0.0000 N   0  0  0  0  0  0  0  0  0  0  0  0
   -8.8534    2.5212    0.0000 C   0  0  0  0  0  0  0  0  0  0  0  0
   -9.0027    1.0287    0.0000 C   0  0  0  0  0  0  0  0  0  0  0  0
   -8.1578   -0.2107    0.0000 C   0  0  0  0  0  0  0  0  0  0  0  0
   -6.7138   -0.6169    0.0000 N   0  0  0  0  0  0  0  0  0  0  0  0
   -8.5290   -0.0742    0.0000 C   0  0  0  0  0  0  0  0  0  0  0  0
   -8.6019    0.0461    0.0000 C   0  0  0  0  0  0  0  0  0  0  0  0
  -10.4426    0.6080    0.0000 C   0  0  0  0  0  0  0  0  0  0  0  0
  -10.4874   -0.8913    0.0000 C   0  0  0  0  0  0  0  0  0  0  0  0
   -9.0754   -1.3973    0.0000 C   0  0  0  0  0  0  0  0  0  0  0  0
   -8.6547   -2.8371    0.0000 C   0  0  0  0  0  0  0  0  0  0  0  0
   -9.3754   -4.1526    0.0000 C   0  0  0  0  0  0  0  0  0  0  0  0
   -8.0598   -4.8733    0.0000 C   0  0  0  0  0  0  0  0  0  0  0  0
   -7.3392   -3.5578    0.0000 C   0  0  0  0  0  0  0  0  0  0  0  0
   -5.8994   -3.1371    0.0000 C   0  0  0  0  0  0  0  0  0  0  0  0
   -4.8152   -4.1737    0.0000 C   0  0  0  0  0  0  0  0  0  0  0  0
   -3.7310   -5.2103    0.0000 C   0  0  0  0  0  0  0  0  0  0  0  0
   -4.0866   -6.6675    0.0000 O   0  0  0  0  0  0  0  0  0  0  0  0
   -3.0024   -7.7041    0.0000 O   0  0  0  0  0  0  0  0  0  0  0  0
   -3.3580   -9.1614    0.0000 O   0  0  0  0  0  0  0  0  0  0  0  0
   -2.2738  -10.1980    0.0000 C   0  0  0  0  0  0  0  0  0  0  0  0
   -2.6295  -11.6552    0.0000 C   0  0  0  0  0  0  0  0  0  0  0  0
  1  2  1  0
  2  3  1  0
  3  4  2  0
  4  5  1  0
  5  6  2  0
  6  7  1  0
  7  8  2  0
  8  9  1  0
  9 10  1  0
 10 11  1  0
 11 12  2  0
 12 13  2  0
 13 14  1  0
 14 15  2  3
 15 16  1  0
 16 17  2  0
 17 18  1  0
 18 19  1  0
 19 20  1  0
 20 21  1  0
 21 22  2  0
 22 23  1  0
 23 24  1  0
 24 25  1  0
 25 26  2  0
 26 27  1  0
 27 28  1  0
 28 29  2  3
 29 30  1  0
 30 31  2  0
 31 32  1  0
 32 33  1  0
 33 34  1  0
 34 35  2  0
 35 36  1  0
 36 37  2  0
 37 38  1  0
 38 39  2  0
 39 40  1  0
 40 41  2  0
 41 42  1  0
 42 43  2  0
 43 44  2  0
 44 45  1  0
 45 46  1  0
 46 47  1  0
 47 48  1  0
 48 49  2  0
  8  3  1  0
 24 11  1  0
 22 16  1  0
 32 19  1  0
 26 20  1  0
 35 30  1  0
 37 31  1  0
 41 38  1  0
M  END
>  <fragInfo>  (1) 
11 12 13 14 15 16 17 18 19 20 21 22 23 24 25 26 27 28 29 30 31 32 33 34 35 36 37
1 2
3 4 5 6 7 8
9
10
38 39 40 41
42 43 44
45
46
47
48 49


>  <torsionInfo>  (1) 
10 11 4 0
37 38 0 5
2 3 1 2
8 9 2 3
9 10 3 4
41 42 5 6
44 45 6 7
45 46 7 8
46 47 8 9
47 48 9 10


>  <atomInfo>  (1) 
1  0.07752207C 
2  -0.4964779OA
3  0.12155735A 
4  -0.0196951A 
5  -0.0585650A 
6  -0.0617245A 
7  -0.0553380A 
8  -0.0055012A 
9  -0.0180232C 
10 0.00131681C 
11 0.08171782C 
12 -0.0974526C 
13 -0.0180636C 
14 -0.0537922C 
15 -0.0525596C 
16 -0.0048003C 
17 -0.0730549C 
18 -0.0125905C 
19 0.04303406C 
20 0.02450583C 
21 -0.0494303C 
22 0.05817483C 
23 -0.2937983N 
24 -0.2596793N 
25 0.02892824C 
26 -0.0215479C 
27 0.06237642C 
28 -0.2879627NA
29 0.03153565C 
30 0.02334208C 
31 0.05466466C 
32 -0.3625057N 
33 0.03721420C 
34 -0.0572339C 
35 -0.0163048C 
36 -0.0444893C 
37 0.00698225C 
38 -0.0083715C 
39 -0.0530397C 
40 -0.0530956C 
41 -0.0098600C 
42 -0.0087876C 
43 -0.0785903C 
44 0.17565113C 
45 -0.2986199OA
46 0.04009719OA
47 -0.3078409OA
48 0.12624837C 
49 -0.0599399C 


$$$$
