
     RDKit          3D

 30 30  0  0  0  0  0  0  0  0999 V2000
   -8.1413    2.5129   -0.5103 C   0  0  0  0  0  0  0  0  0  0  0  0
   -8.3828    1.2177    0.2393 C   0  0  0  0  0  0  0  0  0  0  0  0
   -7.1173    0.8371    0.9671 C   0  0  2  0  0  0  0  0  0  0  0  0
   -6.7270    1.9157    1.9455 C   0  0  0  0  0  0  0  0  0  0  0  0
   -5.9975    0.6554   -0.0004 C   0  0  0  0  0  0  0  0  0  0  0  0
   -6.2217    0.8282   -1.2238 O   0  0  0  0  0  0  0  0  0  0  0  0
   -4.7348    0.3019    0.4524 O   0  0  0  0  0  0  0  0  0  0  0  0
   -3.7243    0.1497   -0.5422 C   0  0  0  0  0  3  0  0  0  0  0  0
   -3.7038   -1.2709   -1.0244 C   0  0  0  0  0  0  0  0  0  0  0  0
   -2.7620   -2.0958   -0.2053 C   0  0  2  0  0  0  0  0  0  0  0  0
   -3.0896   -2.1321    1.1366 O   0  0  0  0  0  0  0  0  0  0  0  0
   -1.3791   -1.6762   -0.4077 C   0  0  0  0  0  0  0  0  0  0  0  0
   -0.4984   -2.5492   -1.0309 C   0  0  0  0  0  0  0  0  0  0  0  0
    0.8602   -1.8810   -1.1201 C   0  0  0  0  0  0  0  0  0  0  0  0
    1.4426   -1.9376    0.1107 C   0  0  0  0  0  0  0  0  0  0  0  0
    2.8151   -1.2648    0.1822 C   0  0  2  0  0  0  0  0  0  0  0  0
    3.1080   -1.3203    1.7022 C   0  0  0  0  0  0  0  0  0  0  0  0
    2.5099    0.1976   -0.1924 C   0  0  2  0  0  0  0  0  0  0  0  0
    3.5048    1.0871    0.4358 C   0  0  0  0  0  0  0  0  0  0  0  0
    4.9247    0.9088    0.0618 C   0  0  0  0  0  0  0  0  0  0  0  0
    5.4357   -0.4606    0.3809 C   0  0  0  0  0  0  0  0  0  0  0  0
    6.9015   -0.5131   -0.0510 C   0  0  0  0  0  3  0  0  0  0  0  0
    7.6160    0.5733    0.7583 C   0  0  0  0  0  0  0  0  0  0  0  0
    7.5521    1.7534    0.0027 O   0  0  0  0  0  0  0  0  0  0  0  0
    8.1924    1.5287   -1.2201 C   0  0  0  0  0  3  0  0  0  0  0  0
    8.4803    2.8581   -1.8855 C   0  0  0  0  0  0  0  0  0  0  0  0
    1.2317    0.5550    0.0873 O   0  0  0  0  0  0  0  0  0  0  0  0
    0.4289   -0.3864    0.3560 O   0  0  0  0  0  0  0  0  0  0  0  0
   -0.8904   -0.3414    0.0124 C   0  0  2  0  0  0  0  0  0  0  0  0
   -1.6336   -0.0514    1.3386 C   0  0  0  0  0  2  0  0  0  0  0  0
  1  2  1  0
  2  3  1  0
  3  4  1  1
  3  5  1  0
  5  6  2  0
  5  7  1  0
  7  8  1  0
  8  9  1  0
  9 10  1  0
 10 11  1  1
 10 12  1  0
 12 13  2  3
 13 14  1  0
 14 15  2  3
 15 16  1  0
 16 17  1  1
 16 18  1  0
 18 19  1  1
 19 20  1  0
 20 21  1  0
 21 22  1  0
 22 23  1  0
 23 24  1  0
 24 25  1  0
 25 26  1  0
 18 27  1  0
 27 28  1  0
 28 29  1  0
 29 30  1  1
 29 12  1  0
M  RAD  4   8   2  22   2  25   2  30   3
M  END
>  <fragInfo>  (1) 
12 13 14 15 16 17 18 27 28 29 30
1 2
3 4
5 6
7
8
9
10 11
19
20
21
22
23
24
25 26


>  <torsionInfo>  (1) 
10 12 7 0
18 19 0 8
2 3 1 2
3 5 2 3
5 7 3 4
7 8 4 5
8 9 5 6
9 10 6 7
19 20 8 9
20 21 9 10
21 22 10 11
22 23 11 12
23 24 12 13
24 25 13 14


>  <atomInfo>  (1) 
1  -0.0645670C 
2  -0.0430349C 
3  0.05379708C 
4  -0.0519474C 
5  0.30854748C 
6  -0.2519620OA
7  -0.4580908OA
8  0.14146773C 
9  0.01815329C 
10 0.08156673C 
11 -0.3884993OA
12 -0.0095989C 
13 -0.0580612C 
14 -0.0657574C 
15 -0.0789862C 
16 0.00369549C 
17 -0.0563806C 
18 0.09895434C 
19 -0.0229517C 
20 -0.0503347C 
21 -0.0477988C 
22 -0.0127931C 
23 0.05022521C 
24 -0.3755233OA
25 0.08055124C 
26 -0.0361162C 
27 -0.2321508OA
28 -0.2281518OA
29 0.12032126C 
30 0.00452816C 


$$$$
