
     RDKit          3D

 10 10  0  0  0  0  0  0  0  0999 V2000
    0.0904    0.6420    0.0229 N   0  0  0  0  0  0  0  0  0  0  0  0
   -1.2849    0.9355    0.2408 C   0  0  0  0  0  0  0  0  0  0  0  0
   -1.6734    2.1126    0.4361 O   0  0  0  0  0  0  0  0  0  0  0  0
   -2.1948   -0.1579    0.2275 N   0  0  0  0  0  0  0  0  0  0  0  0
   -1.8446   -1.4007   -0.1300 O   0  0  0  0  0  0  0  0  0  0  0  0
   -0.5456   -1.6149   -0.1689 O   0  0  0  0  0  0  0  0  0  0  0  0
    0.4020   -0.5958   -0.1696 C   0  0  0  0  0  0  0  0  0  0  0  0
    1.7475   -0.9447   -0.3903 O   0  0  0  0  0  0  0  0  0  0  0  0
    2.7438   -0.1045    0.0691 N   0  0  0  0  0  0  0  0  0  0  0  0
    2.5596    1.1284   -0.1376 O   0  0  0  0  0  0  0  0  0  0  0  0
  1  2  1  0
  2  3  2  0
  2  4  1  0
  4  5  1  0
  5  6  1  0
  6  7  1  0
  7  8  1  0
  8  9  1  0
  9 10  2  0
  1  7  2  0
M  END
>  <fragInfo>  (1) 
1 2 3 4 5 6 7
8
9 10


>  <torsionInfo>  (1) 
7 8 0 1
8 9 1 2


>  <atomInfo>  (1) 
1  -0.1151602NA
2  0.37366754C 
3  -0.2435064OA
4  -0.1715244N 
5  -0.0532914OA
6  -0.2503763OA
7  0.45701199C 
8  -0.2615286OA
9  0.16529721NA
10 -0.1054912OA


$$$$
