
     RDKit          3D

 55 58  0  0  0  0  0  0  0  0999 V2000
   -0.4804   -0.1306    0.0391 C   0  0  2  0  0  0  0  0  0  0  0  0
   -0.4371    0.5571    1.3485 C   0  0  1  0  0  0  0  0  0  0  0  0
    0.2737   -0.1960    2.4351 C   0  0  0  0  0  0  0  0  0  0  0  0
    0.1907    1.9233    1.1648 C   0  0  0  0  0  0  0  0  0  0  0  0
   -0.8113    3.0340    1.3563 C   0  0  0  0  0  0  0  0  0  0  0  0
   -1.3759    3.5357    0.0421 C   0  0  0  0  0  0  0  0  0  0  0  0
   -2.7621    3.0064   -0.1050 C   0  0  1  0  0  0  0  0  0  0  0  0
   -3.3990    2.9045    1.2533 C   0  0  0  0  0  0  0  0  0  0  0  0
   -3.6402    3.8348   -1.0002 C   0  0  0  0  0  3  0  0  0  0  0  0
   -4.8563    2.9688   -1.3534 C   0  0  0  0  0  0  0  0  0  0  0  0
   -4.4566    1.5137   -1.4083 C   0  0  0  0  0  0  0  0  0  0  0  0
   -5.5417    0.5814   -0.9746 C   0  0  1  0  0  0  0  0  0  0  0  0
   -5.1295   -0.8253   -1.4266 C   0  0  0  0  0  0  0  0  0  0  0  0
   -5.7272    0.5214    0.5100 C   0  0  0  0  0  0  0  0  0  0  0  0
   -6.9121    1.2764    1.0109 C   0  0  1  0  0  0  0  0  0  0  0  0
   -7.2807    2.4397    0.1488 C   0  0  0  0  0  0  0  0  0  0  0  0
   -8.1219    0.3819    1.2420 C   0  0  0  0  0  0  0  0  0  0  0  0
   -9.1084    0.5286    0.1426 C   0  0  0  0  0  0  0  0  0  0  0  0
   -9.5326   -0.4909   -0.5720 C   0  0  0  0  0  0  0  0  0  0  0  0
  -10.4518   -0.3206   -1.5889 O   0  0  0  0  0  0  0  0  0  0  0  0
   -9.0134   -1.8494   -0.2796 C   0  0  2  0  0  0  0  0  0  0  0  0
   -8.9692   -2.1205    1.2097 C   0  0  0  0  0  0  0  0  0  0  0  0
   -7.7617   -2.0653   -0.8557 O   0  0  0  0  0  0  0  0  0  0  0  0
   -6.5940   -2.1670    0.4058 S   0  0  0  0  0  0  0  0  0  0  0  0
   -4.9829   -1.7685   -0.2824 C   0  0  2  0  0  0  0  0  0  0  0  0
   -3.9777   -1.3659    0.7396 C   0  0  0  0  0  0  0  0  0  0  0  0
   -2.9658   -0.3758    0.2603 C   0  0  0  0  0  0  0  0  0  0  0  0
   -1.6867   -0.9699   -0.2062 C   0  0  1  0  0  0  0  0  0  0  0  0
   -1.6972   -1.3480   -1.6737 C   0  0  0  0  0  0  0  0  0  0  0  0
   -1.0855   -0.1520   -2.4170 C   0  0  0  0  0  0  0  0  0  0  0  0
    0.3363   -0.5647   -2.7560 C   0  0  0  0  0  3  0  0  0  0  0  0
    1.2824   -0.3599   -1.6172 C   0  0  0  0  0  0  0  0  0  0  0  0
    0.7665   -0.9022   -0.3056 C   0  0  2  0  0  0  0  0  0  0  0  0
    0.3888   -2.3614   -0.5651 C   0  0  0  0  0  2  0  0  0  0  0  0
    1.8261   -0.8091    0.7384 C   0  0  0  0  0  0  0  0  0  0  0  0
    3.0269   -1.6116    0.3010 C   0  0  0  0  0  0  0  0  0  0  0  0
    3.5252   -1.0948   -0.8896 O   0  0  0  0  0  0  0  0  0  0  0  0
    3.9186    0.2305   -0.6677 C   0  0  1  0  0  0  0  0  0  0  0  0
    4.9848    0.3096    0.3840 C   0  0  0  0  0  0  0  0  0  0  0  0
    4.5234   -0.3507    1.6523 C   0  0  0  0  0  0  0  0  0  0  0  0
    5.6667   -0.9669    2.4235 C   0  0  2  0  0  0  0  0  0  0  0  0
    6.6640    0.0275    2.5377 O   0  0  0  0  0  0  0  0  0  0  0  0
    6.2431   -2.1582    1.6674 C   0  0  0  0  0  0  0  0  0  0  0  0
    7.5964   -2.4842    2.2108 C   0  0  0  0  0  3  0  0  0  0  0  0
    8.5581   -1.3582    1.9348 C   0  0  0  0  0  0  0  0  0  0  0  0
    9.3260   -1.6661    0.6542 C   0  0  0  0  0  3  0  0  0  0  0  0
   10.2406   -0.5233    0.2940 C   0  0  0  0  0  3  0  0  0  0  0  0
    9.5041    0.7926    0.2207 C   0  0  0  0  0  3  0  0  0  0  0  0
    9.4967    1.3078   -1.1908 C   0  0  0  0  0  3  0  0  0  0  0  0
    8.1722    0.9379   -1.8590 C   0  0  1  0  0  0  0  0  0  0  0  0
    8.3876    0.4621   -3.2575 C   0  0  0  0  0  0  0  0  0  0  0  0
    7.4720   -0.1483   -1.0528 C   0  0  0  0  0  0  0  0  0  0  0  0
    6.3602   -0.7403   -1.8908 C   0  0  0  0  0  3  0  0  0  0  0  0
    5.5798    0.3511   -2.4985 C   0  0  0  0  0  0  0  0  0  0  0  0
    4.4475    0.8188   -1.9536 C   0  0  0  0  0  0  0  0  0  0  0  0
  1  2  1  1
  2  3  1  1
  2  4  1  0
  4  5  1  0
  5  6  1  0
  6  7  1  0
  7  8  1  1
  7  9  1  0
  9 10  1  0
 10 11  1  0
 12 11  1  1
 12 13  1  0
 12 14  1  0
 14 15  1  0
 15 16  1  6
 15 17  1  0
 17 18  1  0
 18 19  2  3
 19 20  1  0
 19 21  1  0
 21 22  1  1
 21 23  1  0
 23 24  1  0
 24 25  1  0
 25 26  1  1
 26 27  1  0
 28 27  1  6
 28 29  1  0
 29 30  1  0
 30 31  1  0
 31 32  1  0
 32 33  1  0
 33 34  1  6
 33 35  1  0
 35 36  1  0
 36 37  1  0
 38 37  1  6
 38 39  1  0
 39 40  1  0
 40 41  1  0
 41 42  1  6
 41 43  1  0
 43 44  1  0
 44 45  1  0
 45 46  1  0
 46 47  1  0
 47 48  1  0
 48 49  1  0
 49 50  1  0
 50 51  1  6
 50 52  1  0
 52 53  1  0
 53 54  1  0
 54 55  2  3
 28  1  1  0
 33  1  1  0
 25 13  1  0
 55 38  1  0
M  RAD  8   9   2  31   2  34   3  44   2  46   2  47   2  48   2  49   2
M  RAD  1  53   2
M  END
>  <fragInfo>  (1) 
1 2 3 4 5 6 7 8 9 10 11 12 13 14 15 16 17 18 19 20 21 22 23 24 25 26 27 28 29 30 31 32 33 34
35
36
37
38 39 40 41 42 43 44 45 46 47 48 49 50 51 52 53 54 55


>  <torsionInfo>  (1) 
33 35 0 1
35 36 1 2
36 37 2 3
37 38 3 4


>  <atomInfo>  (1) 
1  -0.0299454C 
2  -0.0406281C 
3  -0.0622136C 
4  -0.0504056C 
5  -0.0527775C 
6  -0.0504262C 
7  -0.0411603C 
8  -0.0622342C 
9  -0.0357403C 
10 -0.0496536C 
11 -0.0501120C 
12 -0.0400187C 
13 -0.0361816C 
14 -0.0475145C 
15 -0.0404126C 
16 -0.0622009C 
17 -0.0287778C 
18 -0.0437965C 
19 0.11809495C 
20 -0.5098448OA
21 0.12575099C 
22 -0.0300395C 
23 -0.3041043OA
24 -0.0046990SA
25 0.03140118C 
26 -0.0387614C 
27 -0.0490154C 
28 -0.0377367C 
29 -0.0498772C 
30 -0.0498873C 
31 -0.0380027C 
32 -0.0438174C 
33 -0.0205202C 
34 -0.0280087C 
35 -0.0232968C 
36 0.04791587C 
37 -0.3741353OA
38 0.07563885C 
39 -0.0206273C 
40 -0.0242162C 
41 0.05436661C 
42 -0.3931183OA
43 -0.0238809C 
44 -0.0357400C 
45 -0.0466671C 
46 -0.0345996C 
47 -0.0314833C 
48 -0.0312295C 
49 -0.0320301C 
50 -0.0402832C 
51 -0.0622018C 
52 -0.0435173C 
53 -0.0166805C 
54 -0.0822634C 
55 -0.0596350C 


$$$$
