
     RDKit          3D

 27 27  0  0  0  0  0  0  0  0999 V2000
    1.7265   -2.0761    0.3948 C   0  0  0  0  0  0  0  0  0  0  0  0
    0.9454   -1.9607    1.5626 O   0  0  0  0  0  0  0  0  0  0  0  0
   -0.3929   -1.5400    1.5405 C   0  0  0  0  0  0  0  0  0  0  0  0
   -0.9550   -1.4299    0.3607 C   0  0  0  0  0  0  0  0  0  0  0  0
   -2.3064   -1.0185    0.1018 C   0  0  0  0  0  0  0  0  0  0  0  0
   -2.6875    0.2130   -0.1739 C   0  0  0  0  0  0  0  0  0  0  0  0
   -1.7602    1.3662   -0.2571 C   0  0  0  0  0  0  0  0  0  0  0  0
   -0.7066    1.1641   -1.3459 C   0  0  2  0  0  0  0  0  0  0  0  0
   -1.1211   -0.0169   -2.1545 C   0  0  0  0  0  0  0  0  0  0  0  0
   -0.2728   -0.3370   -3.1857 O   0  0  0  0  0  0  0  0  0  0  0  0
   -0.1273    0.6904   -4.1151 C   0  0  0  0  0  0  0  0  0  0  0  0
   -1.4265    1.0708   -4.7547 C   0  0  0  0  0  0  0  0  0  0  0  0
    0.6135    1.0257   -0.6642 C   0  0  0  0  0  0  0  0  0  0  0  0
    1.4834   -0.0613   -1.2011 C   0  0  1  0  0  0  0  0  0  0  0  0
    2.5710    0.6120   -2.0482 C   0  0  0  0  0  0  0  0  0  0  0  0
    2.1924   -0.7549   -0.0855 C   0  0  0  0  0  0  0  0  0  0  0  0
    3.2529   -0.1962    0.4932 C   0  0  0  0  0  0  0  0  0  0  0  0
    3.9672   -0.8596    1.5929 C   0  0  0  0  0  0  0  0  0  0  0  0
    3.9309   -0.0451    2.7372 O   0  0  0  0  0  0  0  0  0  0  0  0
    4.5486    1.1620    2.4199 C   0  0  0  0  0  0  0  0  0  0  0  0
    5.9518    0.8794    2.0168 C   0  0  0  0  0  0  0  0  0  0  0  0
    6.3813   -0.2510    2.0030 O   0  0  0  0  0  0  0  0  0  0  0  0
   -4.0428    0.4368   -0.3992 O   0  0  0  0  0  0  0  0  0  0  0  0
   -5.0433   -0.3797    0.1810 C   0  0  0  0  0  0  0  0  0  0  0  0
   -4.9843   -0.3541    1.6895 C   0  0  0  0  0  3  0  0  0  0  0  0
   -5.8053    0.6899    2.1256 O   0  0  0  0  0  0  0  0  0  0  0  0
   -5.9326    1.6057    1.1655 O   0  0  0  0  0  0  0  0  0  0  0  0
  1  2  1  0
  2  3  1  0
  3  4  2  3
  4  5  1  0
  5  6  2  3
  6  7  1  0
  7  8  1  0
  8  9  1  1
  9 10  1  0
 10 11  1  0
 11 12  1  0
  8 13  1  0
 13 14  1  0
 14 15  1  6
 14 16  1  0
 16 17  2  3
 17 18  1  0
 18 19  1  0
 19 20  1  0
 20 21  1  0
 21 22  2  0
  6 23  1  0
 23 24  1  0
 24 25  1  0
 25 26  1  0
 26 27  1  0
 16  1  1  0
M  RAD  1  25   2
M  END
>  <fragInfo>  (1) 
1 2 3 4 5 6 7 8 13 14 15 16 17
9
10
11 12
18
19
20
21 22
23
24
25
26 27


>  <torsionInfo>  (1) 
6 23 0 8
8 9 0 1
17 18 0 4
9 10 1 2
10 11 2 3
18 19 4 5
19 20 5 6
20 21 6 7
23 24 8 9
24 25 9 10
25 26 10 11


>  <atomInfo>  (1) 
1  0.10874450C 
2  -0.4968475OA
3  0.08346934C 
4  -0.0241861C 
5  -0.0212335C 
6  0.09655389C 
7  0.00998272C 
8  -0.0102420C 
9  0.04981758C 
10 -0.3814365OA
11 0.04373714C 
12 -0.0415640C 
13 -0.0413409C 
14 -0.0193751C 
15 -0.0585996C 
16 -0.0320196C 
17 -0.0561249C 
18 0.06568062C 
19 -0.3699329OA
20 0.10248122C 
21 0.14517249C 
22 -0.3007932OA
23 -0.4949747OA
24 0.11991339C 
25 0.15904409C 
26 -0.2294135OA
27 -0.2513078OA


$$$$
