
     RDKit          3D

 16 17  0  0  0  0  0  0  0  0999 V2000
    3.1649    0.4439    1.6167 C   0  0  0  0  0  0  0  0  0  0  0  0
    4.5401    0.1342    1.1502 C   0  0  0  0  0  0  0  0  0  0  0  0
    4.4973   -0.3249   -0.0886 C   0  0  0  0  0  0  0  0  0  0  0  0
    3.1122   -0.3480   -0.5148 C   0  0  0  0  0  0  0  0  0  0  0  0
    2.3296    0.0873    0.4432 C   0  0  0  0  0  0  0  0  0  0  0  0
    0.8792    0.1989    0.3599 C   0  0  0  0  0  0  0  0  0  0  0  0
    0.1197    0.6709    1.4222 C   0  0  0  0  0  0  0  0  0  0  0  0
   -1.2596    0.7562    1.2866 C   0  0  0  0  0  0  0  0  0  0  0  0
   -1.8954    0.3853    0.1261 C   0  0  0  0  0  0  0  0  0  0  0  0
   -3.6775    0.5381   -0.0567 S   0  0  0  0  0  0  0  0  0  0  0  0
   -3.4394   -1.9839   -0.0767 C   0  0  0  0  0  0  0  0  0  0  0  0
   -3.9580   -0.0736    1.9662 S   0  0  0  0  0  0  0  0  0  0  0  0
   -4.5029    0.4239   -0.7199 O   0  0  0  0  0  0  0  0  0  0  0  0
   -1.1541   -0.0853   -0.9353 C   0  0  0  0  0  0  0  0  0  0  0  0
    0.2173   -0.1674   -0.7937 C   0  0  0  0  0  0  0  0  0  0  0  0
    1.0265   -0.6555   -1.8857 N   0  0  0  0  0  0  0  0  0  0  0  0
  1  2  1  0
  2  3  2  0
  3  4  1  0
  4  5  2  0
  5  6  1  0
  6  7  2  0
  7  8  1  0
  8  9  2  0
  9 10  1  0
 10 11  1  0
 10 12  1  0
 10 13  2  0
  9 14  1  0
 14 15  2  0
 15 16  1  0
  5  1  1  0
 15  6  1  0
M  END
>  <fragInfo>  (1) 
6 7 8 9 14 15 16
1 2 3 4 5
10 11 12 13


>  <torsionInfo>  (1) 
5 6 1 0
9 10 0 2


>  <atomInfo>  (1) 
1  -0.0087611C 
2  -0.0801007C 
3  -0.0656332C 
4  -0.0583597C 
5  -0.0349240C 
6  0.00096703A 
7  -0.0514640A 
8  -0.0464872A 
9  0.02520370A 
10 -0.0430054S 
11 0.00188003C 
12 -0.1006784SA
13 -0.2710955OA
14 -0.0235419A 
15 0.04017795A 
16 -0.3982019N 


$$$$
