
     RDKit          3D

 18 18  0  0  0  0  0  0  0  0999 V2000
    4.2082    1.0789   -0.1154 C   0  0  0  0  0  0  0  0  0  0  0  0
    4.9393    0.2154   -0.9341 O   0  0  0  0  0  0  0  0  0  0  0  0
    4.0566   -0.8139   -1.3290 C   0  0  0  0  0  3  0  0  0  0  0  0
    3.7650   -1.5330   -0.1651 O   0  0  0  0  0  0  0  0  0  0  0  0
    2.7455   -0.9203    0.5662 C   0  0  2  0  0  0  0  0  0  0  0  0
    2.5234   -1.7904    1.8034 C   0  0  0  0  0  0  0  0  0  0  0  0
    1.5128   -0.9559   -0.2903 C   0  0  0  0  0  3  0  0  0  0  0  0
    0.2806   -0.4333    0.4196 C   0  0  1  0  0  0  0  0  0  0  0  0
    0.4596    0.9463    0.8423 N   0  0  0  0  0  0  0  0  0  0  0  0
    0.6542    1.8196   -0.3122 C   0  0  0  0  0  2  0  0  0  0  0  0
   -0.8449   -0.5565   -0.5856 C   0  0  0  0  0  0  0  0  0  0  0  0
   -2.1535   -0.1096   -0.1278 C   0  0  2  0  0  0  0  0  0  0  0  0
   -2.3429    1.2791    0.2968 C   0  0  0  0  0  0  0  0  0  0  0  0
   -3.1480    2.0523   -0.7268 C   0  0  0  0  0  3  0  0  0  0  0  0
   -4.5383    1.4915   -0.9179 C   0  0  0  0  0  0  0  0  0  0  0  0
   -4.5322   -0.0048   -1.1391 C   0  0  0  0  0  3  0  0  0  0  0  0
   -4.4468   -0.6465    0.0934 O   0  0  0  0  0  0  0  0  0  0  0  0
   -3.1387   -1.1190    0.2985 C   0  0  0  0  0  3  0  0  0  0  0  0
  1  2  1  0
  2  3  1  0
  3  4  1  0
  4  5  1  0
  5  6  1  1
  5  7  1  0
  8  7  1  6
  8  9  1  0
  9 10  1  0
  8 11  1  0
 12 11  1  1
 12 13  1  0
 13 14  1  0
 14 15  1  0
 15 16  1  0
 16 17  1  0
 12 18  1  0
 18 17  1  0
M  RAD  6   3   2   7   2  10   3  14   2  16   2  18   2
M  END
>  <fragInfo>  (1) 
12 13 14 15 16 17 18
1 2
3
4
5 6
7
8
9 10
11


>  <torsionInfo>  (1) 
11 12 8 0
2 3 1 2
3 4 2 3
4 5 3 4
5 7 4 5
7 8 5 6
8 9 6 7
8 11 6 8


>  <atomInfo>  (1) 
1  0.03885651C 
2  -0.3513313OA
3  0.20894130C 
4  -0.3445559OA
5  0.06277451C 
6  -0.0382025C 
7  0.00708330C 
8  0.01316793C 
9  -0.3076839NA
10 0.04094793C 
11 -0.0319334C 
12 -0.0106263C 
13 -0.0445910C 
14 -0.0355489C 
15 -0.0210187C 
16 0.08444704C 
17 -0.3692773OA
18 0.08729219C 


$$$$
