
     RDKit          2D

 18 19  0  0  0  0  0  0  0  0999 V2000
   -2.2458    1.6317    0.0000 O   0  0  0  0  0  0  0  0  0  0  0  0
   -1.0323    0.7500    0.0000 C   0  0  0  0  0  0  0  0  0  0  0  0
    0.3943    1.2135    0.0000 N   0  0  0  0  0  0  0  0  0  0  0  0
    1.2760    0.0000    0.0000 C   0  0  0  0  0  0  0  0  0  0  0  0
    0.3943   -1.2135    0.0000 C   0  0  0  0  0  0  0  0  0  0  0  0
    0.8578   -2.6401    0.0000 C   0  0  0  0  0  0  0  0  0  0  0  0
   -0.1459   -3.7548    0.0000 C   0  0  0  0  0  0  0  0  0  0  0  0
    0.3177   -5.1814    0.0000 F   0  0  0  0  0  0  0  0  0  0  0  0
   -1.0323   -0.7500    0.0000 C   0  0  0  0  0  0  0  0  0  0  0  0
    0.3943   -0.2865    0.0000 C   0  0  0  0  0  0  0  0  0  0  0  0
    1.6078   -1.1682    0.0000 C   0  0  0  0  0  0  0  0  0  0  0  0
    2.9781   -0.5580    0.0000 C   0  0  0  0  0  0  0  0  0  0  0  0
    4.1917   -1.4397    0.0000 C   0  0  0  0  0  0  0  0  0  0  0  0
    5.5620   -0.8296    0.0000 N   0  0  0  0  0  0  0  0  0  0  0  0
    6.7755   -1.7113    0.0000 C   0  0  0  0  0  0  0  0  0  0  0  0
    8.1458   -1.1012    0.0000 C   0  0  0  0  0  0  0  0  0  0  0  0
    9.3594   -1.9829    0.0000 C   0  0  0  0  0  0  0  0  0  0  0  0
   10.7297   -1.3728    0.0000 Cl  0  0  0  0  0  0  0  0  0  0  0  0
  1  2  2  0
  2  3  1  0
  3  4  1  0
  4  5  2  0
  5  6  1  0
  6  7  2  3
  7  8  1  0
  2  9  1  0
  9 10  1  0
 10 11  1  0
 11 12  2  3
 12 13  1  0
 13 14  1  0
 14 15  1  0
 15 16  2  3
 16 17  1  0
 17 18  1  0
 10  3  1  0
  9  5  1  0
M  END
>  <fragInfo>  (1) 
1 2 3 4 5 9 10
6 7 8
11 12
13
14
15 16
17 18


>  <torsionInfo>  (1) 
5 6 0 1
10 11 0 2
12 13 2 3
13 14 3 4
14 15 4 5
16 17 5 6


>  <atomInfo>  (1) 
1  -0.2736952OA
2  0.23666189C 
3  -0.3101253N 
4  0.01170343C 
5  -0.0144535C 
6  -0.0282722C 
7  0.08699829C 
8  -0.2155309F 
9  0.08937905C 
10 0.07019571C 
11 -0.0628541C 
12 -0.0674464C 
13 0.03254673C 
14 -0.3876408N 
15 -0.0062311C 
16 -0.0540359C 
17 0.04204379C 
18 -0.1221406Cl


$$$$
