
     RDKit          3D

  5  4  0  0  0  0  0  0  0  0999 V2000
    1.9162   -0.6436   -0.3042 Br  0  0  0  0  0  0  0  0  0  0  0  0
    0.7200    0.4506    0.6947 N   0  0  0  0  0  2  0  0  0  0  0  0
   -0.1914    0.9982   -0.1433 O   0  0  0  0  0  0  0  0  0  0  0  0
   -0.9261   -0.0802   -0.6707 C   0  0  0  0  0  0  0  0  0  0  0  0
   -1.5187   -0.7251    0.4236 F   0  0  0  0  0  0  0  0  0  0  0  0
  1  2  1  0
  2  3  1  0
  3  4  1  0
  4  5  1  0
M  CHG  1   2   1
M  RAD  1   2   3
M  END
>  <fragInfo>  (1) 
1 2
3
4 5


>  <torsionInfo>  (1) 
2 3 0 1
3 4 1 2


>  <atomInfo>  (1) 
1  0.42556316Br
2  0.36304936N 
3  -0.0391250OA
4  0.26032337C 
5  -0.2125876F 


$$$$
