
     RDKit          3D

 36 36  0  0  0  0  0  0  0  0999 V2000
    3.5997   -1.1188   -1.3433 O   0  0  0  0  0  0  0  0  0  0  0  0
    3.1712    0.1324   -1.3932 O   0  0  0  0  0  0  0  0  0  0  0  0
    2.5989    0.3123   -2.6490 C   0  0  0  0  0  3  0  0  0  0  0  0
    1.7454   -0.7306   -2.9890 O   0  0  0  0  0  0  0  0  0  0  0  0
    1.1459   -1.1787   -1.8250 C   0  0  2  0  0  0  0  0  0  0  0  0
    0.1517   -2.2700   -2.0846 C   0  0  0  0  0  0  0  0  0  0  0  0
    0.5155    0.0216   -1.1423 C   0  0  0  0  0  3  0  0  0  0  0  0
    0.8102    0.0331    0.3097 C   0  0  1  0  0  0  0  0  0  0  0  0
   -0.3032    0.3715    1.2302 C   0  0  0  0  0  3  0  0  0  0  0  0
   -0.9338    1.7015    1.0290 C   0  0  0  0  0  0  0  0  0  0  0  0
   -1.6539    1.8608   -0.2975 C   0  0  2  0  0  0  0  0  0  0  0  0
   -2.2109    3.2884   -0.3397 C   0  0  0  0  0  0  0  0  0  0  0  0
   -2.8923    3.5338   -1.5241 O   0  0  0  0  0  0  0  0  0  0  0  0
   -3.9510    2.6479   -1.6420 C   0  0  0  0  0  0  0  0  0  0  0  0
   -2.8838    0.9614   -0.3477 C   0  0  0  0  0  0  0  0  0  0  0  0
   -2.5104   -0.3422   -0.1987 O   0  0  0  0  0  0  0  0  0  0  0  0
   -3.5451   -1.2423   -0.2288 C   0  0  0  0  0  3  0  0  0  0  0  0
   -4.5974   -0.9934    0.8057 C   0  0  2  0  0  0  0  0  0  0  0  0
   -5.5837   -1.9682    0.6695 O   0  0  0  0  0  0  0  0  0  0  0  0
   -6.1408   -1.9040   -0.5878 C   0  0  0  0  0  0  0  0  0  0  0  0
   -6.7052   -0.6584   -0.7779 O   0  0  0  0  0  0  0  0  0  0  0  0
   -7.2911   -0.5041   -2.0205 C   0  0  0  0  0  2  0  0  0  0  0  0
   -5.2601    0.3517    0.6558 C   0  0  0  0  0  3  0  0  0  0  0  0
   -6.3065    0.5714    1.7033 C   0  0  0  0  0  3  0  0  0  0  0  0
   -6.5794    2.0676    1.8463 C   0  0  0  0  0  2  0  0  0  0  0  0
    1.5291   -1.2241    0.7039 C   0  0  0  0  0  0  0  0  0  0  0  0
    2.8809   -0.9139    0.8400 O   0  0  0  0  0  0  0  0  0  0  0  0
    3.6684   -1.6131   -0.0583 C   0  0  2  0  0  0  0  0  0  0  0  0
    5.0738   -1.6425    0.4845 C   0  0  1  0  0  0  0  0  0  0  0  0
    5.8999   -2.5368   -0.4293 C   0  0  0  0  0  2  0  0  0  0  0  0
    5.6986   -0.2658    0.5462 C   0  0  1  0  0  0  0  0  0  0  0  0
    4.8489    0.5998    1.4513 C   0  0  0  0  0  0  0  0  0  0  0  0
    5.4569    1.9844    1.5275 C   0  0  0  0  0  3  0  0  0  0  0  0
    6.6187    2.0447    0.7393 O   0  0  0  0  0  0  0  0  0  0  0  0
    7.0480   -0.4323    1.2439 C   0  0  0  0  0  3  0  0  0  0  0  0
    6.8866   -0.9454    2.5287 O   0  0  0  0  0  1  0  0  0  0  0  0
  1  2  1  0
  2  3  1  0
  3  4  1  0
  4  5  1  0
  5  6  1  6
  5  7  1  0
  7  8  1  0
  8  9  1  1
  9 10  1  0
 11 10  1  1
 11 12  1  0
 12 13  1  0
 13 14  1  0
 11 15  1  0
 15 16  1  0
 16 17  1  0
 18 17  1  6
 18 19  1  0
 19 20  1  0
 20 21  1  0
 21 22  1  0
 18 23  1  0
 23 24  1  0
 24 25  1  0
  8 26  1  0
 26 27  1  0
 28 27  1  1
 28 29  1  0
 29 30  1  6
 29 31  1  0
 31 32  1  1
 32 33  1  0
 33 34  1  0
 31 35  1  0
 35 36  1  0
 28  1  1  0
M  RAD  8   3   2   7   2   9   2  17   2  22   3  23   2  24   2  25   3
M  CHG  1  36  -1
M  RAD  3  30   3  33   2  35   2
M  END
>  <fragInfo>  (1) 
1 2 3 4 5 6 7 8 26 27 28
9
10
11
12
13 14
15
16
17
18
19
20
21 22
23
24 25
29 30
31
32
33 34
35 36


>  <torsionInfo>  (1) 
8 9 0 1
28 29 0 15
9 10 1 2
10 11 2 3
11 12 3 4
11 15 3 6
12 13 4 5
15 16 6 7
16 17 7 8
17 18 8 9
18 19 9 10
18 23 9 13
19 20 10 11
20 21 11 12
23 24 13 14
29 31 15 16
31 32 16 17
31 35 16 19
32 33 17 18


>  <atomInfo>  (1) 
1  -0.2012878OA
2  -0.1959849OA
3  0.24580731C 
4  -0.3423509OA
5  0.06170420C 
6  -0.0382502C 
7  -0.0041687C 
8  -0.0089208C 
9  -0.0323610C 
10 -0.0425381C 
11 0.00596886C 
12 0.05121205C 
13 -0.3843112OA
14 0.03547249C 
15 0.05223957C 
16 -0.3722973OA
17 0.11268762C 
18 0.09262427C 
19 -0.3490579OA
20 0.14738530C 
21 -0.3465369OA
22 0.11812784C 
23 -0.0030989C 
24 -0.0287162C 
25 -0.0310929C 
26 0.05335028C 
27 -0.3490917OA
28 0.19413216C 
29 0.01824803C 
30 -0.0262110C 
31 -0.0443057C 
32 -0.0221999C 
33 0.08011509C 
34 -0.3904258OA
35 -0.1361543C 
36 -0.8524730OA


$$$$
