
     RDKit          3D

 11 11  0  0  0  0  0  0  0  0999 V2000
    3.1215   -0.4283    0.4144 O   0  0  0  0  0  0  0  0  0  0  0  0
    2.1743    0.5575    0.1088 C   0  0  0  0  0  0  0  0  0  0  0  0
    0.8855   -0.1276   -0.2265 C   0  0  1  0  0  0  0  0  0  0  0  0
    0.4476   -0.9007    0.8927 N   0  0  0  0  0  0  0  0  0  0  0  0
   -0.8092   -1.5588    0.7156 C   0  0  0  0  0  3  0  0  0  0  0  0
   -1.7190   -0.8916   -0.2740 C   0  0  2  0  0  0  0  0  0  0  0  0
   -1.2576   -1.2539   -1.5567 O   0  0  0  0  0  0  0  0  0  0  0  0
   -1.4805    0.6097   -0.1658 C   0  0  1  0  0  0  0  0  0  0  0  0
   -1.5276    0.9581    1.1698 O   0  0  0  0  0  0  0  0  0  0  0  0
   -0.1028    0.8700   -0.7253 C   0  0  1  0  0  0  0  0  0  0  0  0
    0.2678    2.1656   -0.3530 O   0  0  0  0  0  0  0  0  0  0  0  0
  1  2  1  0
  3  2  1  1
  3  4  1  0
  4  5  1  0
  5  6  1  0
  6  7  1  6
  6  8  1  0
  8  9  1  1
  8 10  1  0
 10 11  1  1
 10  3  1  0
M  RAD  1   5   2
M  END
>  <fragInfo>  (1) 
3 4 5 6 7 8 9 10 11
1 2


>  <torsionInfo>  (1) 
2 3 1 0


>  <atomInfo>  (1) 
1  -0.3946489OA
2  0.06106530C 
3  0.05928130C 
4  -0.3025387NA
5  0.05403844C 
6  0.09936216C 
7  -0.3886222OA
8  0.10889851C 
9  -0.3875846OA
10 0.09997869C 
11 -0.3885943OA


$$$$
