
     RDKit          3D

 26 26  0  0  0  0  0  0  0  0999 V2000
    7.4316    2.0751    1.1225 C   0  0  0  0  0  0  0  0  0  0  0  0
    6.8470    0.7215    1.3685 C   0  0  0  0  0  0  0  0  0  0  0  0
    7.7413   -0.3921    0.8477 C   0  0  0  0  0  0  0  0  0  0  0  0
    5.4373    0.6072    0.8349 C   0  0  0  0  0  0  0  0  0  0  0  0
    4.8453   -0.7450    1.0775 C   0  0  0  0  0  0  0  0  0  0  0  0
    3.4423   -0.8087    0.5285 C   0  0  0  0  0  0  0  0  0  0  0  0
    3.5035   -0.5413   -0.9448 C   0  0  1  0  0  0  0  0  0  0  0  0
    4.3554   -1.5586   -1.6389 C   0  0  0  0  0  0  0  0  0  0  0  0
    2.1890   -0.3468   -1.6221 C   0  0  0  0  0  3  0  0  0  0  0  0
    1.3607    0.7573   -1.0519 C   0  0  0  0  0  0  0  0  0  0  0  0
    0.8286    0.4333    0.3045 C   0  0  0  0  0  0  0  0  0  0  0  0
   -0.1101   -0.7222    0.3112 C   0  0  2  0  0  0  0  0  0  0  0  0
    0.4645   -2.0075   -0.1873 C   0  0  0  0  0  0  0  0  0  0  0  0
   -1.3954   -0.3952   -0.4445 C   0  0  1  0  0  0  0  0  0  0  0  0
   -2.3195   -1.5757   -0.4206 C   0  0  0  0  0  0  0  0  0  0  0  0
   -3.6054   -1.2081   -1.1274 C   0  0  1  0  0  0  0  0  0  0  0  0
   -4.7760   -1.5703   -0.2520 C   0  0  0  0  0  2  0  0  0  0  0  0
   -3.6194    0.2172   -1.5782 C   0  0  0  0  0  0  0  0  0  0  0  0
   -4.9671    0.8623   -1.5437 C   0  0  0  0  0  3  0  0  0  0  0  0
   -5.4982    0.8370   -0.1463 C   0  0  2  0  0  0  0  0  0  0  0  0
   -6.8723    0.9864   -0.1094 O   0  0  0  0  0  0  0  0  0  0  0  0
   -4.7716    1.7830    0.7686 C   0  0  0  0  0  0  0  0  0  0  0  0
   -3.8846    1.0678    1.7172 C   0  0  0  0  0  0  0  0  0  0  0  0
   -2.6656    0.6621    1.4158 C   0  0  0  0  0  0  0  0  0  0  0  0
   -1.9427    0.0020    2.4036 O   0  0  0  0  0  0  0  0  0  0  0  0
   -2.0185    0.8595    0.1080 C   0  0  0  0  0  0  0  0  0  0  0  0
  1  2  1  0
  2  3  1  0
  2  4  1  0
  4  5  1  0
  5  6  1  0
  6  7  1  0
  7  8  1  6
  7  9  1  0
  9 10  1  0
 10 11  1  0
 11 12  1  0
 12 13  1  6
 12 14  1  0
 14 15  1  1
 15 16  1  0
 16 17  1  1
 16 18  1  0
 18 19  1  0
 19 20  1  0
 20 21  1  6
 20 22  1  0
 22 23  1  0
 23 24  2  3
 24 25  1  0
 24 26  1  0
 26 14  1  0
M  RAD  3   9   2  17   3  19   2
M  END
>  <fragInfo>  (1) 
14 15 16 17 18 19 20 21 22 23 24 25 26
1 2 3
4
5
6
7 8
9
10
11
12 13


>  <torsionInfo>  (1) 
12 14 9 0
2 4 1 2
4 5 2 3
5 6 3 4
6 7 4 5
7 9 5 6
9 10 6 7
10 11 7 8
11 12 8 9


>  <atomInfo>  (1) 
1  -0.0627736C 
2  -0.0471324C 
3  -0.0627736C 
4  -0.0509643C 
5  -0.0527983C 
6  -0.0504266C 
7  -0.0411603C 
8  -0.0622342C 
9  -0.0357403C 
10 -0.0496542C 
11 -0.0501490C 
12 -0.0409824C 
13 -0.0622309C 
14 -0.0315444C 
15 -0.0466056C 
16 -0.0373564C 
17 -0.0317773C 
18 -0.0444526C 
19 -0.0093615C 
20 0.06073637C 
21 -0.3925036OA
22 -0.0049594C 
23 -0.0442764C 
24 0.08862233C 
25 -0.5126473OA
26 0.00743848C 


$$$$
