
     RDKit          3D

 12 12  0  0  0  0  0  0  0  0999 V2000
   -0.3759    2.2869    1.7505 O   0  0  0  0  0  0  0  0  0  0  0  0
   -0.5886    1.3026    1.0192 C   0  0  0  0  0  0  0  0  0  0  0  0
    0.4795    0.5357    0.3768 C   0  0  0  0  0  0  0  0  0  0  0  0
    1.7603    0.9262    0.5966 C   0  0  0  0  0  0  0  0  0  0  0  0
    2.8122    0.2508    0.0243 C   0  0  0  0  0  0  0  0  0  0  0  0
    2.5254   -0.8327   -0.7776 C   0  0  0  0  0  0  0  0  0  0  0  0
    1.2334   -1.2303   -1.0020 C   0  0  0  0  0  0  0  0  0  0  0  0
    0.2017   -0.5454   -0.4238 C   0  0  0  0  0  0  0  0  0  0  0  0
   -1.1902   -0.9274   -0.6305 C   0  0  0  0  0  0  0  0  0  0  0  0
   -1.4231   -1.9364   -1.3792 O   0  0  0  0  0  0  0  0  0  0  0  0
   -2.2676   -0.2059   -0.0220 C   0  0  0  0  0  0  0  0  0  0  0  0
   -3.1671    0.3759    0.4678 N   0  0  0  0  0  0  0  0  0  0  0  0
  1  2  2  0
  2  3  1  0
  3  4  2  0
  4  5  1  0
  5  6  2  0
  6  7  1  0
  7  8  2  0
  8  9  1  0
  9 10  2  0
  9 11  1  0
 11 12  3  0
  8  3  1  0
M  END
>  <fragInfo>  (1) 
3 4 5 6 7 8
1 2
9 10 11 12


>  <torsionInfo>  (1) 
2 3 1 0
8 9 0 2


>  <atomInfo>  (1) 
1  -0.2978697OA
2  0.15032041C 
3  0.02618307A 
4  -0.0509329A 
5  -0.0615076A 
6  -0.0614603A 
7  -0.0495583A 
8  0.04347576A 
9  0.26241500C 
10 -0.2769211OA
11 0.14391616C 
12 -0.1887788NA


$$$$
