
     RDKit          3D

  9  9  0  0  0  0  0  0  0  0999 V2000
   -1.9170    0.1964    0.3062 C   0  0  0  0  0  0  0  0  0  0  0  0
   -1.5292    1.2855   -0.4602 O   0  0  0  0  0  0  0  0  0  0  0  0
   -0.1857    1.1264   -0.7789 C   0  0  0  0  0  3  0  0  0  0  0  0
    0.5788    0.9547    0.3595 O   0  0  0  0  0  0  0  0  0  0  0  0
    1.4178   -0.1338    0.3115 C   0  0  0  0  0  0  0  0  0  0  0  0
    2.7055    0.2000   -0.4241 C   0  0  0  0  0  0  0  0  0  0  0  0
    0.7762   -1.1320   -0.4351 O   0  0  0  0  0  0  0  0  0  0  0  0
   -0.3560   -1.5120    0.2690 C   0  0  0  0  0  3  0  0  0  0  0  0
   -1.4905   -0.9851   -0.3206 O   0  0  0  0  0  0  0  0  0  0  0  0
  1  2  1  0
  2  3  1  0
  3  4  1  0
  4  5  1  0
  5  6  1  0
  5  7  1  0
  7  8  1  0
  8  9  1  0
  9  1  1  0
M  RAD  2   3   2   8   2
M  END
>  <fragInfo>  (1) 
1 2 3 4 5 6 7 8 9


>  <torsionInfo>  (1) 


>  <atomInfo>  (1) 
1  0.15308463C 
2  -0.3210279OA
3  0.21378018C 
4  -0.3185440OA
5  0.16116118C 
6  -0.0131940C 
7  -0.3185440OA
8  0.21378018C 
9  -0.3210279OA


$$$$
