
     RDKit          3D

 27 27  0  0  0  0  0  0  0  0999 V2000
    5.3291    2.0284   -1.1760 O   0  0  0  0  0  0  0  0  0  0  0  0
    5.7612    1.7636   -0.0254 C   0  0  0  0  0  0  0  0  0  0  0  0
    6.4956    2.7456    0.6223 O   0  0  0  0  0  0  0  0  0  0  0  0
    5.5347    0.4765    0.6736 C   0  0  0  0  0  0  0  0  0  0  0  0
    4.7264   -0.4795   -0.1533 C   0  0  0  0  0  0  0  0  0  0  0  0
    4.5359   -1.7606    0.6161 C   0  0  0  0  0  0  0  0  0  0  0  0
    3.7415   -2.7905   -0.1140 C   0  0  0  0  0  0  0  0  0  0  0  0
    2.3576   -2.3697   -0.4749 C   0  0  2  0  0  0  0  0  0  0  0  0
    2.2936   -1.1654   -1.3617 C   0  0  0  0  0  0  0  0  0  0  0  0
    0.8772   -1.1236   -1.9494 C   0  0  0  0  0  3  0  0  0  0  0  0
   -0.1301   -0.8328   -0.8842 C   0  0  1  0  0  0  0  0  0  0  0  0
   -0.7016   -2.0850   -0.2570 C   0  0  0  0  0  0  0  0  0  0  0  0
   -1.7001   -1.7028    0.7973 C   0  0  0  0  0  0  0  0  0  0  0  0
   -2.8153   -0.8956    0.1515 C   0  0  1  0  0  0  0  0  0  0  0  0
   -3.4516   -1.6581   -0.8387 O   0  0  0  0  0  0  0  0  0  0  0  0
   -3.8672   -0.5263    1.1820 C   0  0  0  0  0  0  0  0  0  0  0  0
   -4.8609    0.2257    0.4715 O   0  0  0  0  0  0  0  0  0  0  0  0
   -4.4246    1.3889   -0.1372 C   0  0  0  0  0  0  0  0  0  0  0  0
   -5.2298    2.4265   -0.1809 C   0  0  0  0  0  0  0  0  0  0  0  0
   -6.5475    2.3339    0.4040 C   0  0  0  0  0  0  0  0  0  0  0  0
   -7.3437    3.3952    0.3478 C   0  0  0  0  0  0  0  0  0  0  0  0
   -6.8108    4.8918   -0.4234 Cl  0  0  0  0  0  0  0  0  0  0  0  0
    0.4228    0.0570    0.2096 C   0  0  2  0  0  0  0  0  0  0  0  0
    0.8589    1.2433   -0.3770 O   0  0  0  0  0  0  0  0  0  0  0  0
    1.4763   -0.6228    1.0272 C   0  0  0  0  0  0  0  0  0  0  0  0
    1.5029   -2.1121    0.7428 C   0  0  2  0  0  0  0  0  0  0  0  0
    1.9694   -2.8517    1.8169 O   0  0  0  0  0  0  0  0  0  0  0  0
  1  2  2  0
  2  3  1  0
  2  4  1  0
  4  5  1  0
  5  6  1  0
  6  7  1  0
  8  7  1  1
  8  9  1  0
  9 10  1  0
 10 11  1  0
 11 12  1  1
 12 13  1  0
 13 14  1  0
 14 15  1  6
 14 16  1  0
 16 17  1  0
 17 18  1  0
 18 19  2  3
 19 20  1  0
 20 21  2  3
 21 22  1  0
 11 23  1  0
 23 24  1  6
 23 25  1  0
 25 26  1  0
 26 27  1  1
 26  8  1  0
M  RAD  1  10   2
M  END
>  <fragInfo>  (1) 
8 9 10 11 23 24 25 26 27
1 2 3
4
5
6
7
12
13
14 15
16
17
18 19
20 21 22


>  <torsionInfo>  (1) 
7 8 5 0
11 12 0 6
2 4 1 2
4 5 2 3
5 6 3 4
6 7 4 5
12 13 6 7
13 14 7 8
14 16 8 9
16 17 9 10
17 18 10 11
19 20 11 12


>  <atomInfo>  (1) 
1  -0.2524858OA
2  0.30283955C 
3  -0.4812303OA
4  0.04532394C 
5  -0.0427773C 
6  -0.0523887C 
7  -0.0479539C 
8  -0.0148750C 
9  -0.0444855C 
10 -0.0325456C 
11 -0.0119409C 
12 -0.0451121C 
13 -0.0232694C 
14 0.08797893C 
15 -0.3895808OA
16 0.11316722C 
17 -0.4985025OA
18 0.08301827C 
19 -0.0266621C 
20 -0.0478648C 
21 0.00435253C 
22 -0.0929537Cl
23 0.05954122C 
24 -0.3927286OA
25 -0.0002370C 
26 0.05927502C 
27 -0.3927396OA


$$$$
