
     RDKit          3D

 25 26  0  0  0  0  0  0  0  0999 V2000
    4.7068   -2.3988   -1.1023 C   0  0  0  0  0  0  0  0  0  0  0  0
    3.9553   -1.9138   -0.0252 O   0  0  0  0  0  0  0  0  0  0  0  0
    3.5799   -0.6017   -0.2471 C   0  0  0  0  0  3  0  0  0  0  0  0
    4.5276    0.2241    0.3531 O   0  0  0  0  0  0  0  0  0  0  0  0
    4.0791    1.5396    0.2440 C   0  0  2  0  0  0  0  0  0  0  0  0
    5.1029    2.4475    0.8940 C   0  0  0  0  0  0  0  0  0  0  0  0
    4.6961    3.7759    0.8089 O   0  0  0  0  0  0  0  0  0  0  0  0
    2.7601    1.6771    0.9677 C   0  0  0  0  0  3  0  0  0  0  0  0
    1.8029    0.7633    0.3474 N   0  0  0  0  0  0  0  0  0  0  0  0
    0.5071    1.4044    0.4421 C   0  0  0  0  0  3  0  0  0  0  0  0
   -0.4044    1.0042   -0.6935 C   0  0  1  0  0  0  0  0  0  0  0  0
   -0.6693   -0.4723   -0.7448 C   0  0  1  0  0  0  0  0  0  0  0  0
   -1.3828   -0.9576    0.4677 C   0  0  0  0  0  0  0  0  0  0  0  0
   -0.9215   -2.0365    0.8032 O   0  0  0  0  0  0  0  0  0  0  0  0
   -1.3927   -0.7907   -2.0153 C   0  0  0  0  0  3  0  0  0  0  0  0
   -2.3346   -1.7816   -1.8954 O   0  0  0  0  0  0  0  0  0  0  0  0
   -3.5288   -1.2402   -2.0040 O   0  0  0  0  0  0  0  0  0  0  0  0
   -3.9345   -0.9422   -0.6839 C   0  0  0  0  0  0  0  0  0  0  0  0
   -3.5965    0.4874   -0.3330 C   0  0  2  0  0  0  0  0  0  0  0  0
   -2.6299    1.1081   -1.2869 C   0  0  0  0  0  0  0  0  0  0  0  0
   -1.6006    1.6928   -0.5553 O   0  0  0  0  0  0  0  0  0  0  0  0
   -3.1747    0.5417    0.9727 O   0  0  0  0  0  0  0  0  0  0  0  0
   -2.4661   -0.5592    1.3963 C   0  0  1  0  0  0  0  0  0  0  0  0
   -3.3289   -1.6619    1.5113 O   0  0  0  0  0  0  0  0  0  0  0  0
   -4.3525   -1.3093    2.3782 C   0  0  0  0  0  2  0  0  0  0  0  0
  1  2  1  0
  2  3  1  0
  3  4  1  0
  4  5  1  0
  5  6  1  1
  6  7  1  0
  5  8  1  0
  8  9  1  0
  9 10  1  0
 11 10  1  1
 11 12  1  0
 12 13  1  0
 13 14  2  0
 12 15  1  6
 15 16  1  0
 16 17  1  0
 17 18  1  0
 19 18  1  6
 19 20  1  0
 20 21  1  0
 19 22  1  0
 22 23  1  0
 23 24  1  6
 24 25  1  0
 21 11  1  0
 23 13  1  0
M  RAD  5   3   2   8   2  10   2  15   2  25   3
M  END
>  <fragInfo>  (1) 
11 12 13 14 15 16 17 18 19 20 21 22 23
1 2
3
4
5
6 7
8
9
10
24 25


>  <torsionInfo>  (1) 
10 11 8 0
23 24 0 9
2 3 1 2
3 4 2 3
4 5 3 4
5 6 4 5
5 8 4 6
8 9 6 7
9 10 7 8


>  <atomInfo>  (1) 
1  0.03885653C 
2  -0.3513296OA
3  0.20908101C 
4  -0.3404783OA
5  0.10079894C 
6  0.07107167C 
7  -0.3936095OA
8  0.05402796C 
9  -0.3031207NA
10 0.05238255C 
11 0.08718450C 
12 0.08294026C 
13 0.19680373C 
14 -0.2934313OA
15 0.13546492C 
16 -0.2294849OA
17 -0.2334732OA
18 0.11079534C 
19 0.11091401C 
20 0.07587371C 
21 -0.3728728OA
22 -0.3376305OA
23 0.21868720C 
24 -0.3369135OA
25 0.11896558C 


$$$$
