
     RDKit          3D

 62 65  0  0  0  0  0  0  0  0999 V2000
    1.7622   -5.5344    4.7688 C   0  0  0  0  0  0  0  0  0  0  0  0
    2.3541   -5.1421    3.5607 O   0  0  0  0  0  0  0  0  0  0  0  0
    1.6119   -4.9813    2.4111 C   0  0  0  0  0  0  0  0  0  0  0  0
    2.0407   -4.1440    1.4809 C   0  0  0  0  0  0  0  0  0  0  0  0
    1.2261   -3.9887    0.2561 C   0  0  0  0  0  0  0  0  0  0  0  0
    1.6548   -3.1408   -0.6917 C   0  0  0  0  0  0  0  0  0  0  0  0
    2.8768   -2.3997   -0.5213 C   0  0  0  0  0  0  0  0  0  0  0  0
    3.1267   -1.3180   -1.1456 N   0  0  0  0  0  0  0  0  0  0  0  0
    4.2936   -0.5765   -1.0070 N   0  0  0  0  0  0  0  0  0  0  0  0
    5.1325   -0.7814    0.1504 C   0  0  2  0  0  0  0  0  0  0  0  0
    4.7480    0.2213    1.2068 C   0  0  0  0  0  0  0  0  0  0  0  0
    6.5447   -0.7526   -0.0575 C   0  0  0  0  0  0  0  0  0  0  0  0
    7.4861    0.0404    0.7417 C   0  0  0  0  0  0  0  0  0  0  0  0
    8.9208    0.0401    0.4982 C   0  0  0  0  0  0  0  0  0  0  0  0
   10.0685    0.9243    1.3703 Cl  0  0  0  0  0  0  0  0  0  0  0  0
    9.2011   -0.8636   -0.6414 C   0  0  0  0  0  0  0  0  0  0  0  0
    8.1332   -0.9403   -0.5534 C   0  0  0  0  0  0  0  0  0  0  0  0
    7.3117   -1.4750   -1.0613 C   0  0  0  0  0  0  0  0  0  0  0  0
    8.5980   -1.7620   -1.6259 O   0  0  0  0  0  0  0  0  0  0  0  0
    0.8382   -2.9877   -1.9158 C   0  0  0  0  0  0  0  0  0  0  0  0
    0.8911   -4.2876   -2.6861 C   0  0  0  0  0  0  0  0  0  0  0  0
    0.2937   -5.3650   -1.7941 C   0  0  0  0  0  0  0  0  0  0  0  0
   -1.1211   -5.1082   -1.6567 N   0  0  0  0  0  0  0  0  0  0  0  0
   -1.8067   -5.5467   -0.4842 C   0  0  0  0  0  0  0  0  0  0  0  0
   -3.1402   -5.4491   -0.3669 C   0  0  0  0  0  0  0  0  0  0  0  0
   -4.0304   -5.8029    0.6661 N   0  0  0  0  0  0  0  0  0  0  0  0
   -5.3709   -5.3377    0.2915 C   0  0  0  0  0  0  0  0  0  0  0  0
   -5.3164   -5.2456   -1.2314 C   0  0  0  0  0  0  0  0  0  0  0  0
   -3.8813   -4.8692   -1.4945 C   0  0  1  0  0  0  0  0  0  0  0  0
   -3.7407   -3.4742   -1.6101 O   0  0  0  0  0  0  0  0  0  0  0  0
   -4.8302   -2.6629   -1.3758 C   0  0  0  0  0  0  0  0  0  0  0  0
   -5.0855   -2.2484   -0.1289 C   0  0  0  0  0  0  0  0  0  0  0  0
   -6.2769   -1.3783    0.0328 C   0  0  1  0  0  0  0  0  0  0  0  0
   -7.4934   -2.3008    0.0761 C   0  0  0  0  0  0  0  0  0  0  0  0
   -8.6127   -1.5079    0.3408 O   0  0  0  0  0  0  0  0  0  0  0  0
   -9.7400   -2.3204    0.3876 C   0  0  0  0  0  0  0  0  0  0  0  0
   -6.1981   -0.7431    1.3465 N   0  0  0  0  0  0  0  0  0  0  0  0
   -7.0913    0.4216    1.3565 C   0  0  0  0  0  0  0  0  0  0  0  0
   -6.6109    1.2912    0.2241 C   0  0  0  0  0  0  0  0  0  0  0  0
   -5.5786    2.0964    0.3574 C   0  0  0  0  0  0  0  0  0  0  0  0
   -5.0935    2.9594   -0.7500 C   0  0  1  0  0  0  0  0  0  0  0  0
   -6.2369    3.7617   -1.1912 N   0  0  0  0  0  0  0  0  0  0  0  0
   -3.9354    3.8085   -0.3452 C   0  0  0  0  0  0  0  0  0  0  0  0
   -2.7129    3.5509   -1.1408 C   0  0  0  0  0  0  0  0  0  0  0  0
   -1.5201    3.5733   -0.5580 C   0  0  0  0  0  0  0  0  0  0  0  0
   -1.4042    3.8556    0.8885 C   0  0  0  0  0  0  0  0  0  0  0  0
   -0.8465    4.9614    1.3400 C   0  0  0  0  0  0  0  0  0  0  0  0
   -0.7956    5.1173    2.7716 N   0  0  0  0  0  0  0  0  0  0  0  0
   -1.7919    5.9689    3.3547 C   0  0  0  0  0  0  0  0  0  0  0  0
   -2.3854    6.9359    2.6664 C   0  0  0  0  0  0  0  0  0  0  0  0
   -0.3382    5.9187    0.4024 C   0  0  0  0  0  0  0  0  0  0  0  0
    0.5875    5.7062   -0.5200 C   0  0  0  0  0  0  0  0  0  0  0  0
    0.9177    6.8507   -1.3390 N   0  0  0  0  0  0  0  0  0  0  0  0
    1.0763    8.1442   -0.7912 C   0  0  0  0  0  0  0  0  0  0  0  0
    2.2406    8.7945   -0.8155 C   0  0  0  0  0  0  0  0  0  0  0  0
    1.2553    4.4302   -0.7339 C   0  0  0  0  0  0  0  0  0  0  0  0
    1.7635    3.7148    0.2848 C   0  0  0  0  0  0  0  0  0  0  0  0
    2.4322    2.4140   -0.0308 C   0  0  2  0  0  0  0  0  0  0  0  0
    3.2258    1.9968    1.0145 O   0  0  0  0  0  0  0  0  0  0  0  0
    4.4898    1.5899    0.6125 C   0  0  0  0  0  0  0  0  0  0  0  0
    3.1844    2.5034   -1.3141 C   0  0  0  0  0  0  0  0  0  0  0  0
    2.6983    2.8444   -2.3546 O   0  0  0  0  0  0  0  0  0  0  0  0
  1  2  1  0
  2  3  1  0
  3  4  2  3
  4  5  1  0
  5  6  2  3
  6  7  1  0
  7  8  2  3
  8  9  1  0
  9 10  1  0
 10 11  1  1
 10 12  1  0
 12 13  1  0
 13 14  2  0
 14 15  1  0
 14 16  1  0
 16 17  2  0
 17 18  1  0
 18 19  1  0
  6 20  1  0
 20 21  1  0
 21 22  1  0
 22 23  1  0
 23 24  1  0
 24 25  2  3
 25 26  1  0
 26 27  1  0
 27 28  1  0
 25 29  1  0
 29 30  1  0
 30 31  1  0
 31 32  2  3
 32 33  1  0
 33 34  1  1
 34 35  1  0
 35 36  1  0
 33 37  1  0
 37 38  1  0
 38 39  1  0
 39 40  2  3
 40 41  1  0
 41 42  1  1
 41 43  1  0
 43 44  1  0
 44 45  2  3
 45 46  1  0
 46 47  2  3
 47 48  1  0
 48 49  1  0
 49 50  2  0
 47 51  1  0
 51 52  2  3
 52 53  1  0
 53 54  1  0
 54 55  2  0
 52 56  1  0
 56 57  2  3
 57 58  1  0
 58 59  1  0
 59 60  1  0
 58 61  1  6
 61 62  2  0
 60 11  1  0
 18 12  2  0
 19 16  1  0
 29 28  1  1
M  END
>  <fragInfo>  (1) 
5 6 7 8 9 10 11 20 21 22 23 24 25 26 27 28 29 30 31 32 33 37 38 39 40 41 42 43 44 45 46 47 51 52 56 57 58 59 60
1 2
3 4
12 13 14 15 16 17 18 19
34
35 36
48
49 50
53
54 55
61 62


>  <torsionInfo>  (1) 
4 5 2 0
10 12 0 3
33 34 0 4
47 48 0 6
52 53 0 8
58 61 0 10
2 3 1 2
34 35 4 5
48 49 6 7
53 54 8 9


>  <atomInfo>  (1) 
1  0.07660055C 
2  -0.5043676OA
3  0.08242082C 
4  -0.0272239C 
5  -0.0543975C 
6  -0.0277389C 
7  0.04998444C 
8  -0.1878145NA
9  -0.3023465NA
10 0.07479720C 
11 -0.0032131C 
12 0.02044553A 
13 -0.0306205A 
14 0.08385208A 
15 -0.0802367Cl
16 0.14927174A 
17 0.02547981A 
18 0.13616832A 
19 -0.4551428OA
20 -0.0246212C 
21 -0.0316949C 
22 0.01447688C 
23 -0.3893841N 
24 0.01961893C 
25 0.06793508C 
26 -0.3840025N 
27 0.01846336C 
28 0.00734279C 
29 0.14018160C 
30 -0.4919748OA
31 0.08154070C 
32 -0.0305669C 
33 0.05218341C 
34 0.06525984C 
35 -0.3827322OA
36 0.03555360C 
37 -0.3049023NA
38 0.01414051C 
39 -0.0731679C 
40 -0.0702852C 
41 0.02588245C 
42 -0.3241821NA
43 -0.0158603C 
44 -0.0825991C 
45 -0.0641395C 
46 -0.0388716C 
47 0.03997507C 
48 -0.3622203N 
49 -0.0062123C 
50 -0.0828992C 
51 -0.0150449C 
52 0.03977627C 
53 -0.3622278N 
54 -0.0062124C 
55 -0.0828992C 
56 -0.0395508C 
57 -0.0466975C 
58 0.13114741C 
59 -0.3665270OA
60 0.05031641C 
61 0.15221669C 
62 -0.3000892OA


$$$$
