
     RDKit          3D

 66 71  0  0  0  0  0  0  0  0999 V2000
    1.9653   -3.7836    2.4017 C   0  0  0  0  0  0  0  0  0  0  0  0
    1.4742   -4.0563    3.8139 C   0  0  1  0  0  0  0  0  0  0  0  0
    2.6946   -4.1950    4.6986 C   0  0  0  0  0  0  0  0  0  0  0  0
    0.6891   -2.8342    4.2454 C   0  0  0  0  0  0  0  0  0  0  0  0
   -0.4786   -3.1872    5.1524 C   0  0  0  0  0  0  0  0  0  0  0  0
   -1.7584   -2.6553    4.5891 C   0  0  0  0  0  0  0  0  0  0  0  0
   -2.4700   -1.6840    5.4875 C   0  0  1  0  0  0  0  0  0  0  0  0
   -1.6007   -1.2003    6.6107 C   0  0  0  0  0  0  0  0  0  0  0  0
   -3.0977   -0.5350    4.7434 C   0  0  0  0  0  3  0  0  0  0  0  0
   -2.1405    0.6004    4.4768 C   0  0  0  0  0  3  0  0  0  0  0  0
   -2.8620    1.6161    3.5832 C   0  0  0  0  0  0  0  0  0  0  0  0
   -1.8872    2.4849    2.8167 C   0  0  2  0  0  0  0  0  0  0  0  0
   -2.3878    2.9102    1.4886 C   0  0  0  0  0  0  0  0  0  0  0  0
   -0.7337    1.6294    2.2628 C   0  0  1  0  0  0  0  0  0  0  0  0
   -1.4894    0.6253    1.3581 C   0  0  1  0  0  0  0  0  0  0  0  0
   -1.2390   -0.6601    2.0441 N   0  0  0  0  0  0  0  0  0  0  0  0
   -2.9583    0.8024    1.2710 C   0  0  0  0  0  0  0  0  0  0  0  0
   -3.5972    0.8060   -0.0724 C   0  0  1  0  0  0  0  0  0  0  0  0
   -4.6114    1.6708   -0.3243 O   0  0  0  0  0  0  0  0  0  0  0  0
   -4.4142    2.7266   -1.1656 C   0  0  0  0  0  0  0  0  0  0  0  0
   -4.1933    3.9635   -0.6254 O   0  0  0  0  0  0  0  0  0  0  0  0
   -3.4533    4.8525   -1.3377 C   0  0  0  0  0  0  0  0  0  0  0  0
   -2.1728    5.3787   -0.8460 C   0  0  0  0  0  0  0  0  0  0  0  0
   -1.8929    5.3944    0.6210 C   0  0  0  0  0  0  0  0  0  0  0  0
   -0.4533    5.1947    1.0027 C   0  0  2  0  0  0  0  0  0  0  0  0
    0.3707    4.9524   -0.1177 O   0  0  0  0  0  0  0  0  0  0  0  0
   -0.2161    4.1286    2.0887 C   0  0  0  0  0  0  0  0  0  0  0  0
   -0.1128    2.7523    1.4287 C   0  0  2  0  0  0  0  0  0  0  0  0
   -1.3233    2.9130    0.4634 C   0  0  1  0  0  0  0  0  0  0  0  0
   -1.2106    2.0126   -0.6289 C   0  0  0  0  0  0  0  0  0  0  0  0
   -1.1518    2.4466   -2.0323 C   0  0  0  0  0  0  0  0  0  0  0  0
   -2.2667    2.1574   -2.7774 O   0  0  0  0  0  0  0  0  0  0  0  0
   -2.9354    1.0142   -2.4962 C   0  0  0  0  0  0  0  0  0  0  0  0
   -2.7919    0.3578   -1.2145 C   0  0  2  0  0  0  0  0  0  0  0  0
   -2.5997   -1.0086   -1.2235 O   0  0  0  0  0  0  0  0  0  0  0  0
   -2.0848   -1.4770   -2.4199 C   0  0  1  0  0  0  0  0  0  0  0  0
   -2.1541   -2.9879   -2.3954 C   0  0  0  0  0  0  0  0  0  0  0  0
   -2.7657   -0.9770   -3.5290 F   0  0  0  0  0  0  0  0  0  0  0  0
   -0.6684   -0.9836   -2.5539 C   0  0  0  0  0  0  0  0  0  0  0  0
    0.1066   -0.9340   -1.2817 C   0  0  0  0  0  0  0  0  0  0  0  0
    0.2061   -2.1701   -0.5058 C   0  0  2  0  0  0  0  0  0  0  0  0
   -0.9495   -2.6920   -0.0282 F   0  0  0  0  0  0  0  0  0  0  0  0
    1.3058   -2.2762    0.5003 C   0  0  2  0  0  0  0  0  0  0  0  0
    1.6760   -1.1117    1.1000 O   0  0  0  0  0  0  0  0  0  0  0  0
    2.5203   -2.9641   -0.1403 C   0  0  0  0  0  0  0  0  0  0  0  0
    2.0879   -3.4566   -1.4964 C   0  0  1  0  0  0  0  0  0  0  0  0
    3.0760   -4.0431   -2.2306 F   0  0  0  0  0  0  0  0  0  0  0  0
    0.8375   -4.2751   -1.4303 C   0  0  0  0  0  0  0  0  0  0  0  0
    0.3655   -4.8191   -2.7345 C   0  0  0  0  0  0  0  0  0  0  0  0
   -0.1424   -3.7894   -3.6914 C   0  0  0  0  0  0  0  0  0  0  0  0
   -1.6182   -3.5934   -3.6735 C   0  0  1  0  0  0  0  0  0  0  0  0
   -2.2877   -4.9346   -3.8565 C   0  0  0  0  0  2  0  0  0  0  0  0
   -1.9799   -2.7973   -4.7813 O   0  0  0  0  0  0  0  0  0  0  0  0
    0.8152   -3.2047    1.6172 C   0  0  0  0  0  3  0  0  0  0  0  0
    1.1194    2.4145    0.7587 C   0  0  0  0  0  0  0  0  0  0  0  0
    1.8660    1.2164    1.3060 C   0  0  2  0  0  0  0  0  0  0  0  0
    3.2244    1.5998    1.3937 O   0  0  0  0  0  0  0  0  0  0  0  0
    1.7231    0.0300    0.3752 C   0  0  1  0  0  0  0  0  0  0  0  0
    2.8229    0.0354   -0.7053 S   0  0  0  0  0  0  0  0  0  0  0  0
    3.7202    0.0453   -1.5578 C   0  0  0  0  0  0  0  0  0  0  0  0
    5.0211    0.0414   -2.7604 P   0  0  0  0  0  0  0  0  0  0  0  0
    6.2139    1.2826   -2.4534 O   0  0  0  0  0  0  0  0  0  0  0  0
    7.7947    0.6723   -2.8624 P   0  0  0  0  0  0  0  0  0  0  0  0
    8.4268    1.7299   -4.0954 O   0  0  0  0  0  0  0  0  0  0  0  0
    8.8093    2.8596   -3.5069 O   0  0  0  0  0  0  0  0  0  0  0  0
    8.2181    3.9679   -4.1476 C   0  0  0  0  0  2  0  0  0  0  0  0
  1  2  1  0
  2  3  1  1
  2  4  1  0
  4  5  1  0
  5  6  1  0
  6  7  1  0
  7  8  1  1
  7  9  1  0
  9 10  1  0
 10 11  1  0
 12 11  1  6
 12 13  1  0
 14 12  1  1
 14 15  1  0
 15 16  1  1
 15 17  1  0
 17 18  1  0
 18 19  1  6
 19 20  1  0
 20 21  1  0
 21 22  1  0
 22 23  1  0
 23 24  1  0
 24 25  1  0
 25 26  1  6
 25 27  1  0
 28 27  1  1
 28 29  1  0
 29 30  1  6
 30 31  1  0
 31 32  1  0
 32 33  1  0
 34 33  1  6
 34 35  1  0
 35 36  1  0
 36 37  1  0
 36 38  1  6
 36 39  1  0
 39 40  1  0
 40 41  1  0
 41 42  1  1
 41 43  1  0
 43 44  1  0
 43 45  1  6
 45 46  1  0
 46 47  1  1
 46 48  1  0
 48 49  1  0
 49 50  1  0
 50 51  1  0
 51 52  1  6
 51 53  1  0
 43 54  1  0
 28 55  1  0
 55 56  1  0
 56 57  1  6
 56 58  1  0
 58 59  1  6
 59 60  3  0
 60 61  1  0
 61 62  1  0
 62 63  1  0
 63 64  1  0
 64 65  1  0
 65 66  1  0
 54  1  1  0
 29 13  1  0
 28 14  1  0
 34 18  1  0
 51 37  1  0
 58 44  1  0
M  RAD  5   9   2  10   2  52   3  54   2  66   3
M  END
>  <fragInfo>  (1) 
1 2 3 4 5 6 7 8 9 10 11 12 13 14 15 16 17 18 19 20 21 22 23 24 25 26 27 28 29 30 31 32 33 34 35 36 37 38 39 40 41 42 43 44 45 46 47 48 49 50 51 52 53 54 55 56 57 58 59 60 61
62
63
64
65 66


>  <torsionInfo>  (1) 
61 62 0 1
62 63 1 2
63 64 2 3
64 65 3 4


>  <atomInfo>  (1) 
1  -0.0446085C 
2  -0.0438958C 
3  -0.0624974C 
4  -0.0506888C 
5  -0.0527878C 
6  -0.0504158C 
7  -0.0408749C 
8  -0.0622236C 
9  -0.0323483C 
10 -0.0346322C 
11 -0.0466753C 
12 -0.0359914C 
13 -0.0466062C 
14 -0.0171025C 
15 0.01009230C 
16 -0.3273087NA
17 -0.0083893C 
18 0.09039850C 
19 -0.3493436OA
20 0.14671779C 
21 -0.3554113OA
22 0.04952938C 
23 -0.0270361C 
24 -0.0247956C 
25 0.05462194C 
26 -0.3931075OA
27 -0.0206173C 
28 -0.0172056C 
29 -0.0327572C 
30 -0.0261961C 
31 0.04697480C 
32 -0.3786369OA
33 0.07554684C 
34 0.11080407C 
35 -0.3371127OA
36 0.21199147C 
37 0.03555479C 
38 -0.2123306F 
39 0.00929491C 
40 -0.0133535C 
41 0.12962215C 
42 -0.2442882F 
43 0.10725509C 
44 -0.3506050OA
45 0.01089099C 
46 0.10298561C 
47 -0.2473750F 
48 -0.0214647C 
49 -0.0477892C 
50 -0.0235264C 
51 0.07373045C 
52 -0.0002797C 
53 -0.3893547OA
54 -0.0031138C 
55 -0.0168518C 
56 0.09400742C 
57 -0.3891389OA
58 0.15320267C 
59 -0.0928899SA
60 -0.0342469C 
61 0.10253046P 
62 -0.3005971OA
63 0.19808541P 
64 -0.1874610OA
65 -0.2218878OA
66 0.15743575C 


$$$$
