
     RDKit          3D

  3  2  0  0  0  0  0  0  0  0999 V2000
   -1.2863   -0.3187   -0.0000 C   0  0  0  0  0  0  0  0  0  0  0  0
   -0.2457    0.5053   -0.0000 C   0  0  0  0  0  0  0  0  0  0  0  0
    1.5320   -0.1866    0.0000 Br  0  0  0  0  0  0  0  0  0  0  0  0
  1  2  2  0
  2  3  1  0
M  END
>  <fragInfo>  (1) 
1 2 3


>  <torsionInfo>  (1) 


>  <atomInfo>  (1) 
1  -0.0921028C 
2  -0.0260960C 
3  -0.0601258Br


$$$$
