
     RDKit          3D

 17 16  0  0  0  0  0  0  0  0999 V2000
    5.2165   -3.1088   -1.0006 C   0  0  0  0  0  0  0  0  0  0  0  0
    4.7146   -1.8012   -1.1422 O   0  0  0  0  0  0  0  0  0  0  0  0
    3.5720   -1.4333   -0.4634 C   0  0  0  0  0  0  0  0  0  0  0  0
    2.8319   -0.3850   -0.8634 C   0  0  0  0  0  0  0  0  0  0  0  0
    1.6504   -0.0405   -0.1242 C   0  0  0  0  0  0  0  0  0  0  0  0
    0.6608    0.2419    0.4974 C   0  0  0  0  0  0  0  0  0  0  0  0
   -0.5532    0.5932    1.2336 C   0  0  0  0  0  0  0  0  0  0  0  0
   -1.6463    0.8307    0.2530 C   0  0  1  0  0  0  0  0  0  0  0  0
   -1.3959    1.9257   -0.7264 C   0  0  0  0  0  0  0  0  0  0  0  0
   -1.1926    3.2257   -0.0145 C   0  0  0  0  0  0  0  0  0  0  0  0
   -0.0316    3.8564   -0.1830 C   0  0  0  0  0  0  0  0  0  0  0  0
    0.1589    5.0722    0.4827 O   0  0  0  0  0  0  0  0  0  0  0  0
   -2.2481   -0.3936   -0.3396 C   0  0  0  0  0  0  0  0  0  0  0  0
   -2.8641   -1.3184    0.6534 C   0  0  2  0  0  0  0  0  0  0  0  0
   -1.9698   -1.8264    1.6451 N   0  0  0  0  0  0  0  0  0  0  0  0
   -3.7902   -2.3251    0.0606 C   0  0  0  0  0  3  0  0  0  0  0  0
   -3.1134   -3.1133   -0.8492 F   0  0  0  0  0  0  0  0  0  0  0  0
  1  2  1  0
  2  3  1  0
  3  4  2  3
  4  5  1  0
  5  6  3  0
  6  7  1  0
  8  7  1  6
  8  9  1  0
  9 10  1  0
 10 11  2  3
 11 12  1  0
  8 13  1  0
 13 14  1  0
 14 15  1  6
 14 16  1  0
 16 17  1  0
M  RAD  1  16   2
M  END
>  <fragInfo>  (1) 
3 4 5 6 7
1 2
8
9
10 11 12
13
14 15
16 17


>  <torsionInfo>  (1) 
2 3 1 0
7 8 0 2
8 9 2 3
8 13 2 5
9 10 3 4
13 14 5 6
14 16 6 7


>  <atomInfo>  (1) 
1  0.07663468C 
2  -0.5036994OA
3  0.09075413C 
4  0.02271498C 
5  -0.0718420C 
6  -0.0981062C 
7  0.01241380C 
8  -0.0252498C 
9  -0.0279431C 
10 -0.0497928C 
11 0.07513765C 
12 -0.5159307OA
13 -0.0309684C 
14 0.03890376C 
15 -0.3251085NA
16 0.14765431C 
17 -0.2424931F 


$$$$
