
     RDKit          3D

 13 13  0  0  0  0  0  0  0  0999 V2000
   -2.3864   -0.6482   -1.4663 N   0  0  0  0  0  0  0  0  0  0  0  0
   -3.0444    0.4714   -1.7803 C   0  0  0  0  0  0  0  0  0  0  0  0
   -2.8947    1.2907   -0.7072 N   0  0  0  0  0  0  0  0  0  0  0  0
   -2.1681    0.6893    0.2320 C   0  0  0  0  0  0  0  0  0  0  0  0
   -1.7637    1.1427    1.4904 O   0  0  0  0  0  0  0  0  0  0  0  0
   -1.8328   -0.5636   -0.2443 C   0  0  0  0  0  0  0  0  0  0  0  0
   -1.0443   -1.6320    0.3853 C   0  0  0  0  0  0  0  0  0  0  0  0
    0.4274   -1.3977    0.3826 C   0  0  0  0  0  0  0  0  0  0  0  0
    0.9603   -1.2677   -1.0110 C   0  0  0  0  0  0  0  0  0  0  0  0
    2.4508   -1.0293   -1.0258 C   0  0  0  0  0  0  0  0  0  0  0  0
    2.7257    0.2551   -0.2697 C   0  0  0  0  0  0  0  0  0  0  0  0
    4.2014    0.5797   -0.2300 C   0  0  0  0  0  0  0  0  0  0  0  0
    4.3690    2.1097    0.6871 Cl  0  0  0  0  0  0  0  0  0  0  0  0
  1  2  1  0
  2  3  2  0
  3  4  1  0
  4  5  1  0
  4  6  2  0
  6  7  1  0
  7  8  1  0
  8  9  1  0
  9 10  1  0
 10 11  1  0
 11 12  1  0
 12 13  1  0
  6  1  1  0
M  END
>  <fragInfo>  (1) 
1 2 3 4 5 6
7
8
9
10
11
12 13


>  <torsionInfo>  (1) 
6 7 0 1
7 8 1 2
8 9 2 3
9 10 3 4
10 11 4 5
11 12 5 6


>  <atomInfo>  (1) 
1  -0.3452510N 
2  0.09636534A 
3  -0.2025817NA
4  0.23178350A 
5  -0.4919992OA
6  0.07877862A 
7  -0.0071172C 
8  -0.0476025C 
9  -0.0528894C 
10 -0.0521594C 
11 -0.0396110C 
12 0.02229557C 
13 -0.1267169Cl


$$$$
