
     RDKit          3D

 27 26  0  0  0  0  0  0  0  0999 V2000
   -7.2507   -0.5938   -1.2160 C   0  0  0  0  0  0  0  0  0  0  0  0
   -5.8728   -0.9629   -0.7182 C   0  0  0  0  0  3  0  0  0  0  0  0
   -4.8694   -0.5876   -1.7874 C   0  0  0  0  0  0  0  0  0  0  0  0
   -3.4964   -0.9517   -1.3003 C   0  0  2  0  0  0  0  0  0  0  0  0
   -3.3721   -2.3130   -1.0347 O   0  0  0  0  0  0  0  0  0  0  0  0
   -3.1265   -0.1324   -0.0805 C   0  0  2  0  0  0  0  0  0  0  0  0
   -3.2376    1.2173   -0.3062 O   0  0  0  0  0  0  0  0  0  0  0  0
   -1.7773   -0.4732    0.4479 C   0  0  1  0  0  0  0  0  0  0  0  0
   -1.5659   -1.8046    0.7057 O   0  0  0  0  0  0  0  0  0  0  0  0
   -0.6398    0.1790   -0.3201 C   0  0  0  0  0  3  0  0  0  0  0  0
    0.6402   -0.2904    0.3598 C   0  0  2  0  0  0  0  0  0  0  0  0
    0.6932   -1.7766    0.2784 C   0  0  0  0  0  3  0  0  0  0  0  0
    1.9023   -2.3897    0.9010 C   0  0  0  0  0  0  0  0  0  0  0  0
    3.1631   -1.9368    0.2864 C   0  0  1  0  0  0  0  0  0  0  0  0
    4.4296   -2.4659    0.8063 C   0  0  0  0  0  1  0  0  0  0  0  0
    3.0855   -1.7847   -1.4688 S   0  0  0  0  0  0  0  0  0  0  0  0
    2.8208   -3.3252   -2.3397 C   0  0  0  0  0  0  0  0  0  0  0  0
    3.8538   -4.2117   -2.2542 O   0  0  0  0  0  0  0  0  0  0  0  0
    4.1748   -4.6369   -0.9886 C   0  0  0  0  0  2  0  0  0  0  0  0
    0.6630    0.2699    1.7443 C   0  0  0  0  0  0  0  0  0  0  0  0
    0.6357    1.8024    1.5984 C   0  0  0  0  0  3  0  0  0  0  0  0
    0.6252    2.9345    2.0706 S   0  0  2  0  0  0  0  0  0  0  0  0
    0.2169    4.2930    2.6450 O   0  0  0  0  0  0  0  0  0  0  0  0
    2.4908    3.8068    1.1676 C   0  0  0  0  0  3  0  0  0  0  0  0
    1.6528    4.2765    0.0134 C   0  0  0  0  0  3  0  0  0  0  0  0
    1.6112    5.6722    0.0528 O   0  0  0  0  0  0  0  0  0  0  0  0
    2.5496    6.1853   -0.7281 O   0  0  0  0  0  0  0  0  0  0  0  0
  1  2  1  0
  2  3  1  0
  3  4  1  0
  4  5  1  1
  4  6  1  0
  6  7  1  6
  6  8  1  0
  8  9  1  6
  8 10  1  0
 11 10  1  1
 11 12  1  0
 12 13  1  0
 13 14  1  0
 14 15  1  6
 14 16  1  0
 16 17  1  0
 17 18  1  0
 18 19  1  0
 11 20  1  0
 20 21  1  0
 21 22  1  0
 22 23  1  0
 22 24  1  0
 24 25  1  0
 25 26  1  0
 26 27  1  0
M  RAD  8   2   2  10   2  12   2  15   2  19   3  21   2  24   2  25   2
M  END
>  <fragInfo>  (1) 
1 2
3
4 5
6 7
8 9
10
11
12
13
14 15
16
17
18 19
20
21
22 23
24
25
26 27


>  <torsionInfo>  (1) 
2 3 0 1
3 4 1 2
4 6 2 3
6 8 3 4
8 10 4 5
10 11 5 6
11 12 6 7
11 20 6 13
12 13 7 8
13 14 8 9
14 16 9 10
16 17 10 11
17 18 11 12
20 21 13 14
21 22 14 15
22 24 15 16
24 25 16 17
25 26 17 18


>  <atomInfo>  (1) 
1  -0.0621560C 
2  -0.0390442C 
3  -0.0215039C 
4  0.08269798C 
5  -0.3903174OA
6  0.10597252C 
7  -0.3877077OA
8  0.08587288C 
9  -0.3900126OA
10 -0.0037788C 
11 -0.0313805C 
12 -0.0339337C 
13 -0.0371854C 
14 0.01475462C 
15 0.00606084C 
16 -0.1296772SA
17 0.09298346C 
18 -0.3619753OA
19 0.11625720C 
20 -0.0363866C 
21 0.02048585C 
22 -0.1402902S 
23 -0.3535088OA
24 0.05500611C 
25 0.13633474C 
26 -0.2319245OA
27 -0.2513969OA


$$$$
