
     RDKit          3D

 24 25  0  0  0  0  0  0  0  0999 V2000
    4.7072    0.9971    1.3186 C   0  0  0  0  0  0  0  0  0  0  0  0
    3.2313    0.8574    1.0447 C   0  0  0  0  0  0  0  0  0  0  0  0
    2.5897    0.2777    2.2872 C   0  0  0  0  0  0  0  0  0  0  0  0
    3.0565   -0.0948   -0.1151 C   0  0  0  0  0  0  0  0  0  0  0  0
    1.5954   -0.2953   -0.4612 C   0  0  1  0  0  0  0  0  0  0  0  0
    1.0203    1.0556   -0.8330 C   0  0  0  0  0  0  0  0  0  0  0  0
    1.1326    2.0487    0.2946 C   0  0  1  0  0  0  0  0  0  0  0  0
    2.0126    3.1929   -0.2064 C   0  0  0  0  0  0  0  0  0  0  0  0
   -0.2580    2.6411    0.4993 C   0  0  0  0  0  3  0  0  0  0  0  0
   -1.0442    1.8907    1.5268 C   0  0  0  0  0  0  0  0  0  0  0  0
   -2.5005    1.8656    1.0455 C   0  0  0  0  0  0  0  0  0  0  0  0
   -2.8965    0.4194    0.9360 C   0  0  1  0  0  0  0  0  0  0  0  0
   -3.4297   -0.0347    2.2626 C   0  0  0  0  0  0  0  0  0  0  0  0
   -3.8229   -1.4823    2.1426 C   0  0  0  0  0  0  0  0  0  0  0  0
   -3.8351    0.1583   -0.1739 C   0  0  0  0  0  0  0  0  0  0  0  0
   -3.4576   -0.2916   -1.3170 N   0  0  0  0  0  3  0  0  0  0  0  0
   -2.0618   -0.5779   -1.5988 C   0  0  0  0  0  0  0  0  0  0  0  0
   -1.5263   -1.4241   -0.5022 C   0  0  0  0  0  0  0  0  0  0  0  0
   -0.4171   -2.1057   -0.5606 C   0  0  0  0  0  0  0  0  0  0  0  0
    0.0167   -2.8759    0.5119 O   0  0  0  0  0  0  0  0  0  0  0  0
    0.4396   -2.0872   -1.7906 C   0  0  2  0  0  0  0  0  0  0  0  0
    1.8701   -2.5970   -1.6327 C   0  0  0  0  0  0  0  0  0  0  0  0
    1.5562   -1.1441   -1.7272 C   0  0  2  0  0  0  0  0  0  0  0  0
    2.0215   -0.3938   -2.9510 C   0  0  0  0  0  1  0  0  0  0  0  0
  1  2  1  0
  2  3  1  0
  2  4  1  0
  5  4  1  6
  5  6  1  0
  6  7  1  0
  7  8  1  6
  7  9  1  0
  9 10  1  0
 10 11  1  0
 11 12  1  0
 12 13  1  1
 13 14  1  0
 12 15  1  0
 15 16  2  3
 16 17  1  0
 17 18  1  0
 18 19  2  3
 19 20  1  0
 19 21  1  0
 21 22  1  1
 22 23  1  0
 23 24  1  6
 23  5  1  0
 23 21  1  0
M  CHG  1  16   1
M  RAD  3   9   2  16   2  24   2
M  END
>  <fragInfo>  (1) 
5 6 7 8 9 10 11 12 15 16 17 18 19 20 21 22 23 24
1 2 3
4
13 14


>  <torsionInfo>  (1) 
4 5 2 0
12 13 0 3
2 4 1 2


>  <atomInfo>  (1) 
1  -0.0627630C 
2  -0.0468477C 
3  -0.0627630C 
4  -0.0475304C 
5  -0.0339177C 
6  -0.0469928C 
7  -0.0408755C 
8  -0.0622237C 
9  -0.0357144C 
10 -0.0491285C 
11 -0.0406554C 
12 0.04261435C 
13 -0.0437916C 
14 -0.0645917C 
15 0.21465368C 
16 0.01629915N 
17 0.23152454C 
18 0.02456707C 
19 0.09843960C 
20 -0.5120839OA
21 0.02323735C 
22 -0.0355334C 
23 -0.0088681C 
24 -0.0008981C 


$$$$
