
     RDKit          3D

 16 15  0  0  0  0  0  0  0  0999 V2000
   -4.0360    2.3006    0.0926 C   0  0  0  0  0  0  0  0  0  0  0  0
   -3.6212    0.8749    0.2190 C   0  0  0  0  0  0  0  0  0  0  0  0
   -4.1579   -0.0144   -0.4762 O   0  0  0  0  0  0  0  0  0  0  0  0
   -2.6334    0.4994    1.1074 O   0  0  0  0  0  0  0  0  0  0  0  0
   -2.2594   -0.8605    1.2069 C   0  0  0  0  0  3  0  0  0  0  0  0
   -3.0670   -1.6803    0.2615 C   0  0  0  0  0  0  0  0  0  0  0  0
   -2.9946   -2.8926    0.3843 O   0  0  0  0  0  0  0  0  0  0  0  0
   -0.8134   -0.9942    0.7810 C   0  0  0  0  0  0  0  0  0  0  0  0
   -0.6913   -0.4748   -0.6522 C   0  0  0  0  0  0  0  0  0  0  0  0
    0.7300   -0.5865   -1.1226 C   0  0  0  0  0  0  0  0  0  0  0  0
    1.6333    0.2192   -0.2398 C   0  0  0  0  0  3  0  0  0  0  0  0
    3.0592    0.0662   -0.7668 C   0  0  0  0  0  0  0  0  0  0  0  0
    4.0012    0.8702    0.1048 C   0  0  2  0  0  0  0  0  0  0  0  0
    3.5809    2.3224    0.0528 C   0  0  0  0  0  0  0  0  0  0  0  0
    5.3829    0.7218   -0.4247 C   0  0  0  0  0  0  0  0  0  0  0  0
    5.8867   -0.3714   -0.5488 O   0  0  0  0  0  0  0  0  0  0  0  0
  1  2  1  0
  2  3  2  0
  2  4  1  0
  4  5  1  0
  5  6  1  0
  6  7  2  0
  5  8  1  0
  8  9  1  0
  9 10  1  0
 10 11  1  0
 11 12  1  0
 12 13  1  0
 13 14  1  6
 13 15  1  0
 15 16  2  0
M  RAD  2   5   2  11   2
M  END
>  <fragInfo>  (1) 
1 2 3
4
5
6 7
8
9
10
11
12
13 14
15 16


>  <torsionInfo>  (1) 
2 4 0 1
4 5 1 2
5 6 2 3
5 8 2 4
8 9 4 5
9 10 5 6
10 11 6 7
11 12 7 8
12 13 8 9
13 15 9 10


>  <atomInfo>  (1) 
1  0.03398635C 
2  0.30327671C 
3  -0.2525927OA
4  -0.4466786OA
5  0.21278965C 
6  0.16790397C 
7  -0.2986873OA
8  -0.0012974C 
9  -0.0485955C 
10 -0.0499947C 
11 -0.0378925C 
12 -0.0409326C 
13 0.01200737C 
14 -0.0558168C 
15 0.12230255C 
16 -0.3031003OA


$$$$
