
     RDKit          3D

 16 16  0  0  0  0  0  0  0  0999 V2000
    0.1943   -1.2519   -1.6677 C   0  0  0  0  0  0  0  0  0  0  0  0
   -0.7427   -0.0780   -1.4792 C   0  0  1  0  0  0  0  0  0  0  0  0
   -2.1629   -0.3915   -1.7005 C   0  0  0  0  0  0  0  0  0  0  0  0
   -3.0580   -0.3984   -0.5378 C   0  0  2  0  0  0  0  0  0  0  0  0
   -4.3359    0.0489   -0.9458 O   0  0  0  0  0  0  0  0  0  0  0  0
   -2.6375    0.3901    0.6444 C   0  0  2  0  0  0  0  0  0  0  0  0
   -2.7293    1.7704    0.3751 O   0  0  0  0  0  0  0  0  0  0  0  0
   -1.1486    0.1337    0.9073 C   0  0  1  0  0  0  0  0  0  0  0  0
   -0.9983   -1.2524    0.9105 O   0  0  0  0  0  0  0  0  0  0  0  0
   -0.4411    0.7366   -0.2737 C   0  0  1  0  0  0  0  0  0  0  0  0
    0.9398    0.9713   -0.0864 N   0  0  0  0  0  0  0  0  0  0  0  0
    1.7367   -0.1947    0.1293 C   0  0  0  0  0  3  0  0  0  0  0  0
    2.4575   -0.0365    1.4532 C   0  0  0  0  0  0  0  0  0  0  0  0
    3.7215    0.5986    1.2786 O   0  0  0  0  0  0  0  0  0  0  0  0
    4.7010    0.0224    0.4670 C   0  0  0  0  0  0  0  0  0  0  0  0
    4.5036   -1.0686   -0.1337 O   0  0  0  0  0  0  0  0  0  0  0  0
  2  1  1  1
  2  3  1  0
  3  4  1  0
  4  5  1  6
  4  6  1  0
  6  7  1  6
  6  8  1  0
  8  9  1  6
  8 10  1  0
 10 11  1  1
 11 12  1  0
 12 13  1  0
 13 14  1  0
 14 15  1  0
 15 16  2  0
 10  2  1  0
M  RAD  1  12   2
M  END
>  <fragInfo>  (1) 
1 2 3 4 5 6 7 8 9 10
11
12
13
14
15 16


>  <torsionInfo>  (1) 
10 11 0 1
11 12 1 2
12 13 2 3
13 14 3 4
14 15 4 5


>  <atomInfo>  (1) 
1  -0.0608233C 
2  -0.0236263C 
3  -0.0201755C 
4  0.08280077C 
5  -0.3903155OA
6  0.10722524C 
7  -0.3876533OA
8  0.09793130C 
9  -0.3886791OA
10 0.03851500C 
11 -0.3036259NA
12 0.06041560C 
13 0.10795879C 
14 -0.4661725OA
15 0.29263437C 
16 -0.2561377OA


$$$$
