
     RDKit          3D

 16 16  0  0  0  0  0  0  0  0999 V2000
    2.5940    3.3795   -1.1068 Cl  0  0  0  0  0  0  0  0  0  0  0  0
    3.0401    1.6979   -1.1472 C   0  0  0  0  0  0  0  0  0  0  0  0
    2.4578    0.8176   -0.3336 C   0  0  0  0  0  0  0  0  0  0  0  0
    2.8868   -0.5849   -0.4255 C   0  0  0  0  0  0  0  0  0  0  0  0
    2.3312   -1.4916    0.3673 C   0  0  0  0  0  0  0  0  0  0  0  0
    1.3294   -1.1820    1.3157 N   0  0  0  0  0  0  0  0  0  0  0  0
    0.1140   -0.6450    0.8874 N   0  0  0  0  0  0  0  0  0  0  0  0
   -0.2294   -0.5734   -0.3127 N   0  0  0  0  0  0  0  0  0  0  0  0
   -1.5216    0.0080   -0.6258 C   0  0  1  0  0  0  0  0  0  0  0  0
   -2.4930   -1.0742   -0.8870 C   0  0  0  0  0  0  0  0  0  0  0  0
   -3.7070   -1.1079   -0.0972 C   0  0  0  0  0  0  0  0  0  0  0  0
   -3.9609   -0.2166    0.8284 C   0  0  0  0  0  0  0  0  0  0  0  0
   -3.0052    0.8404    1.0788 C   0  0  0  0  0  0  0  0  0  0  0  0
   -1.8710    0.9663    0.4209 C   0  0  0  0  0  0  0  0  0  0  0  0
   -0.8321    2.3059    0.8545 Cl  0  0  0  0  0  0  0  0  0  0  0  0
    2.8669   -3.1399    0.2270 Cl  0  0  0  0  0  0  0  0  0  0  0  0
  1  2  1  0
  2  3  2  3
  3  4  1  0
  4  5  2  3
  5  6  1  0
  6  7  1  0
  7  8  2  3
  8  9  1  0
  9 10  1  1
 10 11  1  0
 11 12  2  0
 12 13  1  0
 13 14  2  0
 14 15  1  0
  5 16  1  0
 14  9  1  0
M  END
>  <fragInfo>  (1) 
9 10 11 12 13 14 15
1 2 3
4 5 16
6
7 8


>  <torsionInfo>  (1) 
8 9 4 0
3 4 1 2
5 6 2 3
6 7 3 4


>  <atomInfo>  (1) 
1  -0.0929538Cl
2  0.00434925C 
3  -0.0478746C 
4  -0.0243879C 
5  0.12368745C 
6  -0.2489010N 
7  -0.0732506NA
8  -0.1614067NA
9  0.11178544C 
10 -0.0051373C 
11 -0.0819177C 
12 -0.0649486C 
13 -0.0456872C 
14 0.04490180C 
15 -0.0866881Cl
16 -0.0629216Cl


$$$$
