
     RDKit          3D

 24 26  0  0  0  0  0  0  0  0999 V2000
    3.1347   -1.5444    1.6517 C   0  0  0  0  0  0  0  0  0  0  0  0
    2.3120   -0.3292    1.3391 C   0  0  1  0  0  0  0  0  0  0  0  0
    3.1544    0.8927    1.5103 C   0  0  0  0  0  0  0  0  0  0  0  0
    3.7259    1.3988    0.2035 C   0  0  2  0  0  0  0  0  0  0  0  0
    2.7864    2.1690   -0.4877 O   0  0  0  0  0  0  0  0  0  0  0  0
    4.0887    0.1772   -0.6252 C   0  0  2  0  0  0  0  0  0  0  0  0
    4.8580    0.4994   -1.7262 O   0  0  0  0  0  0  0  0  0  0  0  0
    2.7896   -0.4218   -1.1220 C   0  0  1  0  0  0  0  0  0  0  0  0
    3.0277   -1.7559   -1.4387 O   0  0  0  0  0  0  0  0  0  0  0  0
    1.7190   -0.3696   -0.0522 C   0  0  1  0  0  0  0  0  0  0  0  0
    0.8792   -1.5356   -0.2281 N   0  0  0  0  0  0  0  0  0  0  0  0
   -0.2586   -1.5285    0.6692 C   0  0  0  0  0  3  0  0  0  0  0  0
   -1.4961   -1.2980   -0.1787 C   0  0  1  0  0  0  0  0  0  0  0  0
   -2.6947   -1.2639    0.7770 C   0  0  1  0  0  0  0  0  0  0  0  0
   -2.3700   -2.1342    1.8410 O   0  0  0  0  0  0  0  0  0  0  0  0
   -2.6337    0.1635    1.2608 C   0  0  2  0  0  0  0  0  0  0  0  0
   -3.8326    0.8298    1.1861 O   0  0  0  0  0  0  0  0  0  0  0  0
   -4.2763    1.0290   -0.0078 O   0  0  0  0  0  0  0  0  0  0  0  0
   -3.3923    1.5967   -0.8873 C   0  0  1  0  0  0  0  0  0  0  0  0
   -2.5288    2.5213   -0.3067 O   0  0  0  0  0  0  0  0  0  0  0  0
   -2.5752    0.5058   -1.5406 C   0  0  2  0  0  0  0  0  0  0  0  0
   -3.3793   -0.5603   -1.8619 O   0  0  0  0  0  0  0  0  0  0  0  0
   -1.4448    0.1639   -0.6066 C   0  0  1  0  0  0  0  0  0  0  0  0
   -1.5932    0.7943    0.6310 O   0  0  0  0  0  0  0  0  0  0  0  0
  2  1  1  6
  2  3  1  0
  3  4  1  0
  4  5  1  6
  4  6  1  0
  6  7  1  6
  6  8  1  0
  8  9  1  1
  8 10  1  0
 10 11  1  1
 11 12  1  0
 13 12  1  1
 13 14  1  0
 14 15  1  1
 14 16  1  0
 16 17  1  6
 17 18  1  0
 18 19  1  0
 19 20  1  1
 19 21  1  0
 21 22  1  1
 21 23  1  0
 23 24  1  1
 10  2  1  0
 23 13  1  0
 24 16  1  0
M  RAD  1  12   2
M  END
>  <fragInfo>  (1) 
13 14 15 16 17 18 19 20 21 22 23 24
1 2 3 4 5 6 7 8 9 10
11
12


>  <torsionInfo>  (1) 
12 13 3 0
10 11 1 2
11 12 2 3


>  <atomInfo>  (1) 
1  -0.0608233C 
2  -0.0236283C 
3  -0.0201755C 
4  0.08280077C 
5  -0.3903155OA
6  0.10722522C 
7  -0.3876533OA
8  0.09792934C 
9  -0.3886791OA
10 0.03840389C 
11 -0.3062632NA
12 0.03102230C 
13 0.03600522C 
14 0.11481431C 
15 -0.3872483OA
16 0.21785689C 
17 -0.1988041OA
18 -0.1989223OA
19 0.21723060C 
20 -0.3635695OA
21 0.13423831C 
22 -0.3849557OA
23 0.09890670C 
24 -0.3409069OA


$$$$
