
     RDKit          3D

 35 37  0  0  0  0  0  0  0  0999 V2000
    2.8330   -0.1095    1.1223 C   0  0  0  0  0  0  0  0  0  0  0  0
    2.0597   -1.3706    1.0413 C   0  0  2  0  0  0  0  0  0  0  0  0
    2.8958   -2.6028    1.1678 C   0  0  0  0  0  0  0  0  0  0  0  0
    1.1858   -1.4257   -0.1710 C   0  0  0  0  0  0  0  0  0  0  0  0
    1.5589   -2.5879   -1.0633 C   0  0  0  0  0  0  0  0  0  0  0  0
    1.2034   -3.9033   -0.4307 C   0  0  0  0  0  0  0  0  0  0  0  0
   -0.0961   -4.4113   -0.9970 C   0  0  1  0  0  0  0  0  0  0  0  0
   -0.9504   -4.9757    0.1215 C   0  0  0  0  0  0  0  0  0  0  0  0
   -0.8502   -3.2291   -1.5689 C   0  0  0  0  0  3  0  0  0  0  0  0
   -2.0877   -3.7782   -2.2559 C   0  0  0  0  0  0  0  0  0  0  0  0
   -3.2499   -2.9018   -1.9354 C   0  0  0  0  0  0  0  0  0  0  0  0
   -2.9922   -1.6322   -1.6516 C   0  0  0  0  0  0  0  0  0  0  0  0
   -4.0996   -0.7041   -1.3236 C   0  0  1  0  0  0  0  0  0  0  0  0
   -4.5013   -0.7824    0.5174 P   0  0  0  0  0  0  0  0  0  0  0  0
   -3.6182    0.8444    0.9037 C   0  0  2  0  0  0  0  0  0  0  0  0
   -4.6782    1.8909    1.1913 C   0  0  0  0  0  0  0  0  0  0  0  0
   -5.4216    1.4505    2.2845 O   0  0  0  0  0  0  0  0  0  0  0  0
   -3.7408    0.6251   -1.4319 O   0  0  0  0  0  0  0  0  0  0  0  0
   -3.0056    1.0659   -0.4315 C   0  0  2  0  0  0  0  0  0  0  0  0
   -1.5377    1.0272   -0.5040 C   0  0  0  0  0  0  0  0  0  0  0  0
   -0.8770    1.9441    0.5038 C   0  0  2  0  0  0  0  0  0  0  0  0
   -1.7072    3.1310    0.8592 C   0  0  0  0  0  0  0  0  0  0  0  0
   -2.0267    3.9950   -0.3081 C   0  0  0  0  0  0  0  0  0  0  0  0
   -1.6523    5.2769   -0.3582 C   0  0  0  0  0  0  0  0  0  0  0  0
   -2.0223    6.0501   -1.5694 C   0  0  0  0  0  0  0  0  0  0  0  0
    0.4832    2.3160   -0.0435 C   0  0  0  0  0  0  0  0  0  0  0  0
    1.1922    0.9899   -0.3483 C   0  0  0  0  0  0  0  0  0  0  0  0
    2.4217    0.9553    0.4821 C   0  0  0  0  0  0  0  0  0  0  0  0
    3.3890    2.0743    0.7407 C   0  0  0  0  0  0  0  0  0  0  0  0
    4.1691    1.6228    1.7799 O   0  0  0  0  0  0  0  0  0  0  0  0
    4.0845    0.2490    1.8338 C   0  0  2  0  0  0  0  0  0  0  0  0
    5.2840   -0.4234    1.2177 C   0  0  2  0  0  0  0  0  0  0  0  0
    6.5427   -0.0402    1.9640 C   0  0  0  0  0  0  0  0  0  0  0  0
    5.4865   -0.1084   -0.2315 C   0  0  0  0  0  3  0  0  0  0  0  0
    4.3253   -0.5218   -1.1072 C   0  0  0  0  0  2  0  0  0  0  0  0
  1  2  1  0
  2  3  1  6
  2  4  1  0
  4  5  1  0
  5  6  1  0
  6  7  1  0
  7  8  1  1
  7  9  1  0
  9 10  1  0
 10 11  1  0
 11 12  2  3
 12 13  1  0
 13 14  1  1
 14 15  1  0
 15 16  1  6
 16 17  1  0
 13 18  1  0
 18 19  1  0
 19 20  1  1
 20 21  1  0
 21 22  1  6
 22 23  1  0
 23 24  2  3
 24 25  1  0
 21 26  1  0
 26 27  1  0
 27 28  1  0
 28 29  1  0
 29 30  1  0
 31 30  1  6
 31 32  1  0
 32 33  1  1
 32 34  1  0
 34 35  1  0
  1 28  2  0
 31  1  1  0
 19 15  1  0
M  RAD  3   9   2  34   2  35   3
M  END
>  <fragInfo>  (1) 
1 2 3 4 5 6 7 8 9 10 11 12 13 14 15 18 19 20 21 26 27 28 29 30 31
16 17
22
23 24 25
32 33
34 35


>  <torsionInfo>  (1) 
15 16 0 1
21 22 0 2
31 32 0 4
22 23 2 3
32 34 4 5


>  <atomInfo>  (1) 
1  -0.0370303C 
2  -0.0202435C 
3  -0.0586319C 
4  -0.0468412C 
5  -0.0524795C 
6  -0.0504039C 
7  -0.0408534C 
8  -0.0622230C 
9  -0.0319895C 
10 -0.0315728C 
11 -0.0853286C 
12 -0.0559243C 
13 0.09238055C 
14 -0.0787535P 
15 0.02865958C 
16 0.05216689C 
17 -0.3956240OA
18 -0.3659656OA
19 0.06781741C 
20 -0.0228192C 
21 -0.0351666C 
22 -0.0321250C 
23 -0.0885398C 
24 -0.0916538C 
25 -0.0469914C 
26 -0.0462105C 
27 -0.0290991C 
28 -0.0425970C 
29 0.06883455C 
30 -0.3692151OA
31 0.08233289C 
32 -0.0104768C 
33 -0.0594121C 
34 -0.0291470C 
35 -0.0311056C 


$$$$
