
     RDKit          3D

 25 25  0  0  0  0  0  0  0  0999 V2000
   -3.3151   -1.0660    0.0313 C   0  0  0  0  0  0  0  0  0  0  0  0
   -4.6555   -1.0314   -0.4181 O   0  0  0  0  0  0  0  0  0  0  0  0
   -5.4799   -0.6238    0.6650 C   0  0  0  0  0  3  0  0  0  0  0  0
   -4.7513    0.2772    1.4593 O   0  0  0  0  0  0  0  0  0  0  0  0
   -4.3150    1.3586    0.7376 C   0  0  2  0  0  0  0  0  0  0  0  0
   -5.2088    1.6947   -0.4430 C   0  0  0  0  0  0  0  0  0  0  0  0
   -4.6653    2.7939   -1.0834 O   0  0  0  0  0  0  0  0  0  0  0  0
   -2.8982    1.1882    0.3078 C   0  0  1  0  0  0  0  0  0  0  0  0
   -1.8748    1.4518    1.3532 C   0  0  0  0  0  3  0  0  0  0  0  0
   -0.4894    1.2787    0.8207 C   0  0  0  0  0  0  0  0  0  0  0  0
   -0.1679   -0.1209    0.3687 C   0  0  2  0  0  0  0  0  0  0  0  0
   -0.3165   -1.2953    1.7444 S   0  0  0  0  0  0  0  0  0  0  0  0
    0.5869   -0.8808    2.9062 O   0  0  0  0  0  0  0  0  0  0  0  0
    1.2305   -0.2100   -0.1422 C   0  0  1  0  0  0  0  0  0  0  0  0
    1.4924    0.6096   -1.2167 O   0  0  0  0  0  0  0  0  0  0  0  0
    2.7719    0.4090   -1.5448 O   0  0  0  0  0  0  0  0  0  0  0  0
    2.9656    1.0856   -2.7533 C   0  0  0  0  0  3  0  0  0  0  0  0
    3.2236    0.2387   -3.8075 O   0  0  0  0  0  0  0  0  0  0  0  0
    2.4829   -0.1816    1.1340 S   0  0  0  0  0  0  0  0  0  0  0  0
    4.0276   -0.2926    0.3685 O   0  0  0  0  0  0  0  0  0  0  0  0
    4.1239   -1.6063   -0.1338 C   0  0  0  0  0  3  0  0  0  0  0  0
    5.2937   -1.7972   -0.8561 O   0  0  0  0  0  0  0  0  0  0  0  0
    6.3491   -1.1326   -0.2359 C   0  0  0  0  0  3  0  0  0  0  0  0
    6.2573   -1.3255    1.1494 O   0  0  0  0  0  0  0  0  0  0  0  0
   -2.6677    0.0664   -0.4114 O   0  0  0  0  0  0  0  0  0  0  0  0
  1  2  1  0
  2  3  1  0
  3  4  1  0
  4  5  1  0
  5  6  1  6
  6  7  1  0
  5  8  1  0
  8  9  1  1
  9 10  1  0
 11 10  1  1
 11 12  1  0
 12 13  2  0
 11 14  1  0
 14 15  1  6
 15 16  1  0
 16 17  1  0
 17 18  1  0
 14 19  1  0
 19 20  1  0
 20 21  1  0
 21 22  1  0
 22 23  1  0
 23 24  1  0
  8 25  1  0
 25  1  1  0
M  RAD  5   3   2   9   2  17   2  21   2  23   2
M  END
>  <fragInfo>  (1) 
1 2 3 4 5 8 25
6 7
9
10
11
12 13
14
15
16
17 18
19
20
21
22
23 24


>  <torsionInfo>  (1) 
5 6 0 1
8 9 0 2
9 10 2 3
10 11 3 4
11 12 4 5
11 14 4 6
14 15 6 7
14 19 6 10
15 16 7 8
16 17 8 9
19 20 10 11
20 21 11 12
21 22 12 13
22 23 13 14


>  <atomInfo>  (1) 
1  0.15017105C 
2  -0.3212272OA
3  0.21170418C 
4  -0.3393600OA
5  0.11039719C 
6  0.07204939C 
7  -0.3935680OA
8  0.09209941C 
9  -0.0054924C 
10 -0.0296382C 
11 0.07342457C 
12 0.01457843S 
13 -0.2624110OA
14 0.17788159C 
15 -0.2157953OA
16 -0.1976538OA
17 0.24283275C 
18 -0.3616903OA
19 0.03175777SA
20 -0.2756052OA
21 0.22516821C 
22 -0.3122348OA
23 0.20919319C 
24 -0.3638723OA
25 -0.3489665OA


$$$$
