
     RDKit          3D

 12 11  0  0  0  0  0  0  0  0999 V2000
    4.5699   -0.1634    0.2343 O   0  0  0  0  0  0  0  0  0  0  0  0
    3.3757   -0.8301    0.5622 C   0  0  0  0  0  0  0  0  0  0  0  0
    2.2869   -0.2691   -0.3248 C   0  0  0  0  0  3  0  0  0  0  0  0
    1.6319    0.8641    0.2957 N   0  0  0  0  0  0  0  0  0  0  0  0
    0.2605    0.4929    0.5896 C   0  0  2  0  0  0  0  0  0  0  0  0
    0.3297   -0.6525    1.5844 C   0  0  0  0  0  0  0  0  0  0  0  0
   -0.3127    0.0340   -0.5750 O   0  0  0  0  0  0  0  0  0  0  0  0
   -1.6166   -0.3644   -0.4917 C   0  0  1  0  0  0  0  0  0  0  0  0
   -1.7329   -1.4040    0.4221 O   0  0  0  0  0  0  0  0  0  0  0  0
   -2.5746    0.7450   -0.1922 C   0  0  2  0  0  0  0  0  0  0  0  0
   -2.2261    1.3082    1.0241 O   0  0  0  0  0  0  0  0  0  0  0  0
   -3.9916    0.2392   -0.2134 C   0  0  0  0  0  2  0  0  0  0  0  0
  1  2  1  0
  2  3  1  0
  3  4  1  0
  4  5  1  0
  5  6  1  1
  5  7  1  0
  7  8  1  0
  8  9  1  1
  8 10  1  0
 10 11  1  0
 10 12  1  1
M  RAD  2   3   2  12   3
M  END
>  <fragInfo>  (1) 
10 11 12
1 2
3
4
5 6
7
8 9


>  <torsionInfo>  (1) 
8 10 6 0
2 3 1 2
3 4 2 3
4 5 3 4
5 7 4 5
7 8 5 6


>  <atomInfo>  (1) 
1  -0.3946892OA
2  0.06011303C 
3  0.04988552C 
4  -0.2855217NA
5  0.10843358C 
6  -0.0249209C 
7  -0.3322944OA
8  0.18259226C 
9  -0.3657566OA
10 0.10828297C 
11 -0.3875208OA
12 0.00149098C 


$$$$
