
     RDKit          3D

 31 33  0  0  0  0  0  0  0  0999 V2000
   -4.2815   -0.6187   -0.4314 C   0  0  0  0  0  0  0  0  0  0  0  0
   -5.0203   -0.1058    0.7928 C   0  0  2  0  0  0  0  0  0  0  0  0
   -6.2605    0.6351    0.3641 C   0  0  0  0  0  0  0  0  0  0  0  0
   -4.0832    0.9202    1.4423 C   0  0  0  0  0  0  0  0  0  0  0  0
   -4.3044    2.2175    0.6902 C   0  0  0  0  0  0  0  0  0  0  0  0
   -3.2125    2.5299   -0.2796 C   0  0  0  0  0  0  0  0  0  0  0  0
   -1.8768    2.3210    0.3876 C   0  0  1  0  0  0  0  0  0  0  0  0
   -1.6805    0.9111    0.8308 C   0  0  0  0  0  0  0  0  0  0  0  0
   -0.7812    2.8649   -0.4684 C   0  0  0  0  0  3  0  0  0  0  0  0
    0.4174    3.3433    0.3164 C   0  0  0  0  0  0  0  0  0  0  0  0
    1.7213    2.8324   -0.2658 C   0  0  0  0  0  0  0  0  0  0  0  0
    2.8774    3.6905    0.1982 C   0  0  2  0  0  0  0  0  0  0  0  0
    2.7538    5.0684   -0.4133 C   0  0  0  0  0  0  0  0  0  0  0  0
    4.1646    3.0868   -0.3275 C   0  0  0  0  0  3  0  0  0  0  0  0
    3.9901    1.6522   -0.7601 C   0  0  0  0  0  0  0  0  0  0  0  0
    3.9618    0.7980    0.4869 C   0  0  1  0  0  0  0  0  0  0  0  0
    2.6441    0.2259    0.6107 N   0  0  0  0  0  0  0  0  0  0  0  0
    4.9513   -0.3257    0.3035 C   0  0  0  0  0  0  0  0  0  0  0  0
    4.3437   -1.4406   -0.5165 C   0  0  0  0  0  0  0  0  0  0  0  0
    3.3749   -2.2769    0.2996 C   0  0  2  0  0  0  0  0  0  0  0  0
    4.0543   -3.4472    0.6685 O   0  0  0  0  0  0  0  0  0  0  0  0
    2.1959   -2.6387   -0.5854 C   0  0  0  0  0  3  0  0  0  0  0  0
    1.7548   -4.0494   -0.2402 C   0  0  0  0  0  0  0  0  0  0  0  0
    0.3146   -4.2780   -0.5794 C   0  0  0  0  0  3  0  0  0  0  0  0
   -0.2820   -3.1853   -1.2093 O   0  0  0  0  0  0  0  0  0  0  0  0
   -1.1056   -2.5676   -0.3016 C   0  0  1  0  0  0  0  0  0  0  0  0
   -0.3725   -1.4434    0.3445 C   0  0  0  0  0  0  0  0  0  0  0  0
   -1.9035   -0.3507    0.8344 S   0  0  2  0  0  0  0  0  0  0  0  0
   -3.0928   -1.3861    0.0502 C   0  0  2  0  0  0  0  0  0  0  0  0
   -2.2653   -1.9523   -1.0843 C   0  0  2  0  0  0  0  0  0  0  0  0
   -2.9972   -3.0308   -1.8101 C   0  0  0  0  0  2  0  0  0  0  0  0
  1  2  1  0
  2  3  1  6
  2  4  1  0
  4  5  1  0
  5  6  1  0
  7  6  1  6
  7  8  1  0
  7  9  1  0
  9 10  1  0
 10 11  1  0
 11 12  1  0
 12 13  1  6
 12 14  1  0
 14 15  1  0
 15 16  1  0
 16 17  1  6
 16 18  1  0
 18 19  1  0
 19 20  1  0
 20 21  1  6
 20 22  1  0
 22 23  1  0
 23 24  1  0
 24 25  1  0
 26 25  1  6
 26 27  1  0
 28 27  1  6
 28 29  1  0
 29 30  1  0
 30 31  1  1
 29  1  1  6
 28  8  1  0
 30 26  1  0
M  RAD  5   9   2  14   2  22   2  24   2  31   3
M  END
>  <fragInfo>  (1) 
1 2 3 4 5 6 7 8 9 10 11 12 13 14 15 16 17 18 19 20 21 22 23 24 25 26 27 28 29 30 31


>  <torsionInfo>  (1) 


>  <atomInfo>  (1) 
1  -0.0399826C 
2  -0.0432785C 
3  -0.0624707C 
4  -0.0506614C 
5  -0.0527490C 
6  -0.0494378C 
7  -0.0308614C 
8  -0.0218302C 
9  -0.0347156C 
10 -0.0496148C 
11 -0.0501505C 
12 -0.0410914C 
13 -0.0622330C 
14 -0.0342218C 
15 -0.0346044C 
16 0.00425745C 
17 -0.3276991NA
18 -0.0355104C 
19 -0.0252480C 
20 0.05731365C 
21 -0.3928266OA
22 -0.0073055C 
23 -0.0184705C 
24 0.08445117C 
25 -0.3711470OA
26 0.06943239C 
27 0.00182091C 
28 -0.2474902S 
29 -0.0076900C 
30 -0.0005348C 
31 -0.0280218C 


$$$$
