
     RDKit          3D

 12 11  0  0  0  0  0  0  0  0999 V2000
    3.0501    0.9005   -0.3881 O   0  0  0  0  0  0  0  0  0  0  0  0
    2.7118   -0.4228   -0.0766 C   0  0  0  0  0  0  0  0  0  0  0  0
    2.1280   -1.0981   -1.2840 C   0  0  0  0  0  3  0  0  0  0  0  0
    0.6970   -0.9531   -1.3910 N   0  0  0  0  0  0  0  0  0  0  0  0
    0.1456   -0.1182   -0.3374 C   0  0  2  0  0  0  0  0  0  0  0  0
    0.4452   -0.8556    0.9594 C   0  0  0  0  0  0  0  0  0  0  0  0
   -0.0113   -0.1843    2.0662 O   0  0  0  0  0  0  0  0  0  0  0  0
   -1.3367   -0.0517   -0.5769 C   0  0  1  0  0  0  0  0  0  0  0  0
   -1.9851   -1.2661   -0.5409 O   0  0  0  0  0  0  0  0  0  0  0  0
   -2.0431    1.0629    0.0901 C   0  0  2  0  0  0  0  0  0  0  0  0
   -1.2917    2.2095   -0.0034 O   0  0  0  0  0  0  0  0  0  0  0  0
   -2.5096    0.7769    1.4826 C   0  0  0  0  0  2  0  0  0  0  0  0
  1  2  1  0
  2  3  1  0
  3  4  1  0
  4  5  1  0
  5  6  1  1
  6  7  1  0
  5  8  1  0
  8  9  1  1
  8 10  1  0
 10 11  1  0
 10 12  1  1
M  RAD  2   3   2  12   3
M  END
>  <fragInfo>  (1) 
10 11 12
1 2
3
4
5
6 7
8 9


>  <torsionInfo>  (1) 
8 10 6 0
2 3 1 2
3 4 2 3
4 5 3 4
5 6 4 5
5 8 4 6


>  <atomInfo>  (1) 
1  -0.3946905OA
2  0.06004187C 
3  0.04808498C 
4  -0.3028773NA
5  0.05917609C 
6  0.06106342C 
7  -0.3946489OA
8  0.09765794C 
9  -0.3886922OA
10 0.08505010C 
11 -0.3900515OA
12 -0.0010975C 


$$$$
