
     RDKit          2D

 69 73  0  0  0  0  0  0  0  0999 V2000
    3.8835    4.8697    0.0000 C   0  0  0  0  0  0  0  0  0  0  0  0
    4.4315    3.4734    0.0000 C   0  0  0  0  0  0  0  0  0  0  0  0
    5.9147    3.2498    0.0000 C   0  0  0  0  0  0  0  0  0  0  0  0
    6.4627    1.8535    0.0000 C   0  0  0  0  0  0  0  0  0  0  0  0
    7.9460    1.6299    0.0000 O   0  0  0  0  0  0  0  0  0  0  0  0
    5.5275    0.6808    0.0000 C   0  0  0  0  0  0  0  0  0  0  0  0
    6.0755   -0.7155    0.0000 O   0  0  0  0  0  0  0  0  0  0  0  0
    4.0442    0.9043    0.0000 C   0  0  0  0  0  0  0  0  0  0  0  0
    3.1090   -0.2684    0.0000 O   0  0  0  0  0  0  0  0  0  0  0  0
    3.4962    2.3006    0.0000 C   0  0  0  0  0  0  0  0  0  0  0  0
    2.0130    2.5242    0.0000 N   0  0  0  0  0  0  0  0  0  0  0  0
    1.0777    1.3515    0.0000 C   0  0  0  0  0  0  0  0  0  0  0  0
    1.7286    0.0000    0.0000 C   0  0  0  0  0  0  0  0  0  0  0  0
    1.0777   -1.3515    0.0000 C   0  0  0  0  0  3  0  0  0  0  0  0
    2.0130   -2.5242    0.0000 O   0  0  0  0  0  0  0  0  0  0  0  0
   -0.3846   -1.6852    0.0000 C   0  0  0  0  0  0  0  0  0  0  0  0
   -0.7184   -3.1476    0.0000 O   0  0  0  0  0  0  0  0  0  0  0  0
   -1.5574   -0.7500    0.0000 C   0  0  0  0  0  0  0  0  0  0  0  0
   -2.9088   -1.4008    0.0000 O   0  0  0  0  0  0  0  0  0  0  0  0
   -1.5574    0.7500    0.0000 C   0  0  0  0  0  0  0  0  0  0  0  0
   -2.9088    1.4008    0.0000 O   0  0  0  0  0  0  0  0  0  0  0  0
   -0.3846    1.6852    0.0000 C   0  0  0  0  0  0  0  0  0  0  0  0
   -0.7184    3.1476    0.0000 O   0  0  0  0  0  0  0  0  0  0  0  0
    0.3812    4.1679    0.0000 O   0  0  0  0  0  0  0  0  0  0  0  0
    0.0474    5.6303    0.0000 O   0  0  0  0  0  0  0  0  0  0  0  0
    1.1469    6.6505    0.0000 C   0  0  0  0  0  0  0  0  0  0  0  0
    2.5803    6.2084    0.0000 O   0  0  0  0  0  0  0  0  0  0  0  0
    0.8132    8.1129    0.0000 C   0  0  0  0  0  3  0  0  0  0  0  0
    1.9127    9.1332    0.0000 O   0  0  0  0  0  0  0  0  0  0  0  0
    1.5790   10.5956    0.0000 C   0  0  0  0  0  0  0  0  0  0  0  0
    2.6785   11.6158    0.0000 C   0  0  0  0  0  0  0  0  0  0  0  0
    3.7781   12.6361    0.0000 N   0  0  0  0  0  0  0  0  0  0  0  0
    2.3448   13.0782    0.0000 C   0  0  0  0  0  0  0  0  0  0  0  0
    0.9114   13.5204    0.0000 O   0  0  0  0  0  0  0  0  0  0  0  0
   -0.1882   12.5001    0.0000 C   0  0  0  0  0  0  0  0  0  0  0  0
    0.1456   11.0377    0.0000 C   0  0  0  0  0  0  0  0  0  0  0  0
   -0.9540   10.0175    0.0000 O   0  0  0  0  0  0  0  0  0  0  0  0
   -2.3873   10.4596    0.0000 C   0  0  0  0  0  0  0  0  0  0  0  0
   -2.7211   11.9220    0.0000 O   0  0  0  0  0  0  0  0  0  0  0  0
   -3.4869    9.4393    0.0000 C   0  0  0  0  0  3  0  0  0  0  0  0
   -4.9203    9.8815    0.0000 C   0  0  0  0  0  0  0  0  0  0  0  0
   -5.2541   11.3439    0.0000 C   0  0  0  0  0  0  0  0  0  0  0  0
   -6.6874   11.7860    0.0000 C   0  0  0  0  0  0  0  0  0  0  0  0
   -4.1545   12.3641    0.0000 O   0  0  0  0  0  0  0  0  0  0  0  0
   -4.4883   13.8265    0.0000 C   0  0  0  0  0  3  0  0  0  0  0  0
   -3.3887   14.8468    0.0000 O   0  0  0  0  0  0  0  0  0  0  0  0
   -3.7225   16.3092    0.0000 C   0  0  0  0  0  0  0  0  0  0  0  0
   -2.6229   17.3294    0.0000 O   0  0  0  0  0  0  0  0  0  0  0  0
   -2.9567   18.7918    0.0000 O   0  0  0  0  0  0  0  0  0  0  0  0
   -6.0198    8.8612    0.0000 C   0  0  0  0  0  0  0  0  0  0  0  0
   -7.4532    9.3033    0.0000 O   0  0  0  0  0  0  0  0  0  0  0  0
   -8.5528    8.2831    0.0000 C   0  0  0  0  0  3  0  0  0  0  0  0
   -9.9861    8.7252    0.0000 C   0  0  0  0  0  3  0  0  0  0  0  0
  -11.0857    7.7049    0.0000 N   0  0  0  0  0  0  0  0  0  0  0  0
  -12.5191    8.1471    0.0000 C   0  0  0  0  0  3  0  0  0  0  0  0
  -13.6187    7.1268    0.0000 O   0  0  0  0  0  0  0  0  0  0  0  0
  -15.0520    7.5690    0.0000 C   0  0  0  0  0  0  0  0  0  0  0  0
  -16.1516    6.5487    0.0000 C   0  0  0  0  0  0  0  0  0  0  0  0
  -17.5850    6.9908    0.0000 O   0  0  0  0  0  0  0  0  0  0  0  0
  -15.8178    5.0863    0.0000 O   0  0  0  0  0  0  0  0  0  0  0  0
  -16.9174    4.0660    0.0000 C   0  0  0  0  0  0  0  0  0  0  0  0
  -16.5836    2.6037    0.0000 O   0  0  0  0  0  0  0  0  0  0  0  0
  -17.6832    1.5834    0.0000 C   0  0  0  0  0  0  0  0  0  0  0  0
  -19.1165    2.0255    0.0000 C   0  0  0  0  0  3  0  0  0  0  0  0
  -17.3494    0.1210    0.0000 C   0  0  0  0  0  0  0  0  0  0  0  0
  -18.4490   -0.8993    0.0000 O   0  0  0  0  0  0  0  0  0  0  0  0
  -19.8823   -0.4571    0.0000 N   0  0  0  0  0  0  0  0  0  0  0  0
  -20.2161    1.0053    0.0000 C   0  0  0  0  0  0  0  0  0  0  0  0
  -21.6495    1.4474    0.0000 C   0  0  0  0  0  2  0  0  0  0  0  0
  2  1  1  1
  2  3  1  0
  3  4  1  0
  4  5  1  6
  4  6  1  0
  6  7  1  6
  6  8  1  0
  8  9  1  1
  8 10  1  0
 10 11  1  1
 12 11  1  1
 12 13  1  0
 13 14  1  0
 14 15  1  0
 14 16  1  0
 16 17  1  1
 16 18  1  0
 18 19  1  1
 18 20  1  0
 20 21  1  6
 20 22  1  0
 22 23  1  1
 23 24  1  0
 24 25  1  0
 25 26  1  0
 26 27  1  1
 26 28  1  0
 28 29  1  0
 30 29  1  6
 30 31  1  0
 31 32  1  1
 31 33  1  0
 33 34  1  0
 34 35  1  0
 35 36  1  0
 36 37  1  6
 37 38  1  0
 38 39  1  1
 38 40  1  0
 41 40  1  1
 41 42  1  0
 42 43  1  0
 42 44  1  0
 44 45  1  0
 45 46  1  0
 46 47  1  0
 47 48  1  0
 48 49  1  0
 41 50  1  0
 50 51  1  0
 51 52  1  0
 52 53  1  0
 53 54  1  0
 54 55  1  0
 55 56  1  0
 56 57  1  0
 57 58  1  0
 58 59  1  1
 58 60  1  0
 60 61  1  0
 61 62  1  0
 63 62  1  1
 63 64  1  0
 63 65  1  0
 65 66  1  0
 66 67  1  0
 67 68  1  0
 68 69  1  1
 10  2  1  0
 22 12  1  0
 36 30  1  0
 33 32  1  1
 68 64  1  0
M  RAD  8  14   2  28   2  40   2  45   2  52   2  53   2  55   2  64   2
M  RAD  1  69   3
M  END
>  <fragInfo>  (1) 
12 13 14 15 16 17 18 19 20 21 22
1 2 3 4 5 6 7 8 9 10
11
23
24
25
26 27
28
29
30 31 32 33 34 35 36
37
38 39
40
41
42 43
44
45
46
47
48 49
50
51
52
53
54
55
56
57
58 59
60
61
62
63 64 65 66 67 68 69


>  <torsionInfo>  (1) 
11 12 2 0
22 23 0 3
10 11 1 2
23 24 3 4
24 25 4 5
25 26 5 6
26 28 6 7
28 29 7 8
29 30 8 9
36 37 9 10
37 38 10 11
38 40 11 12
40 41 12 13
41 42 13 14
41 50 13 20
42 44 14 15
44 45 15 16
45 46 16 17
46 47 17 18
47 48 18 19
50 51 20 21
51 52 21 22
52 53 22 23
53 54 23 24
54 55 24 25
55 56 25 26
56 57 26 27
57 58 27 28
58 60 28 29
60 61 29 30
61 62 30 31
62 63 31 32


>  <atomInfo>  (1) 
1  -0.0608233C 
2  -0.0236278C 
3  -0.0201755C 
4  0.08280077C 
5  -0.3903155OA
6  0.10722523C 
7  -0.3876533OA
8  0.09792987C 
9  -0.3886791OA
10 0.03843589C 
11 -0.3053952NA
12 0.04234086C 
13 -0.0002481C 
14 0.12591923C 
15 -0.3838736OA
16 0.11414501C 
17 -0.3871773OA
18 0.11138533C 
19 -0.3874834OA
20 0.11347651C 
21 -0.3873982OA
22 0.13981366C 
23 -0.1982070OA
24 -0.0648317OA
25 -0.1711630OA
26 0.22077027C 
27 -0.3634744OA
28 0.14299761C 
29 -0.3620283OA
30 0.10600260C 
31 0.07799108C 
32 -0.2815387NA
33 0.12640598C 
34 -0.3587783OA
35 0.07777893C 
36 0.11185105C 
37 -0.3441593OA
38 0.15839046C 
39 -0.3676896OA
40 0.02537693C 
41 0.01652043C 
42 0.06353801C 
43 -0.0381734C 
44 -0.3444568OA
45 0.21168595C 
46 -0.3180478OA
47 0.18340417C 
48 -0.2105551OA
49 -0.2494211OA
50 0.05291736C 
51 -0.3733472OA
52 0.10218257C 
53 0.05616987C 
54 -0.2816080NA
55 0.14824243C 
56 -0.3538451OA
57 0.09986955C 
58 0.18058245C 
59 -0.3659525OA
60 -0.3243723OA
61 0.15000464C 
62 -0.3492217OA
63 0.09049629C 
64 0.01245391C 
65 0.09485330C 
66 -0.2987719OA
67 -0.1986881NA
68 0.04147699C 
69 -0.0137814C 


$$$$
