
     RDKit          3D

 15 15  0  0  0  0  0  0  0  0999 V2000
    3.0820   -2.2594    0.2686 N   0  0  0  0  0  0  0  0  0  0  0  0
    1.9619   -1.4932   -0.3011 C   0  0  1  0  0  0  0  0  0  0  0  0
    0.8230   -1.6470    0.6465 C   0  0  0  0  0  0  0  0  0  0  0  0
   -0.4108   -0.9418    0.2457 C   0  0  0  0  0  0  0  0  0  0  0  0
   -1.3870   -1.5425   -0.5432 C   0  0  0  0  0  0  0  0  0  0  0  0
   -2.5323   -0.8585   -0.9018 C   0  0  0  0  0  0  0  0  0  0  0  0
   -2.7501    0.4481   -0.4893 C   0  0  0  0  0  0  0  0  0  0  0  0
   -3.8903    1.1624   -0.8326 O   0  0  0  0  0  0  0  0  0  0  0  0
   -1.7875    1.0484    0.2920 C   0  0  0  0  0  0  0  0  0  0  0  0
   -1.9951    2.3721    0.7170 O   0  0  0  0  0  0  0  0  0  0  0  0
   -0.6393    0.3571    0.6490 C   0  0  0  0  0  0  0  0  0  0  0  0
    2.4124   -0.0831   -0.3950 C   0  0  0  0  0  0  0  0  0  0  0  0
    3.5540    0.2894   -0.0230 O   0  0  0  0  0  0  0  0  0  0  0  0
    1.5721    0.8979   -0.9081 O   0  0  0  0  0  0  0  0  0  0  0  0
    1.9871    2.2502   -1.0049 C   0  0  0  0  0  0  0  0  0  0  0  0
  2  1  1  1
  2  3  1  0
  3  4  1  0
  4  5  2  0
  5  6  1  0
  6  7  2  0
  7  8  1  0
  7  9  1  0
  9 10  1  0
  9 11  2  0
  2 12  1  0
 12 13  2  0
 12 14  1  0
 14 15  1  0
 11  4  1  0
M  END
>  <fragInfo>  (1) 
4 5 6 7 8 9 10 11
1 2
3
12 13
14 15


>  <torsionInfo>  (1) 
3 4 2 0
2 3 1 2
2 12 1 3
12 14 3 4


>  <atomInfo>  (1) 
1  -0.3181574NA
2  0.10735637C 
3  -0.0016424C 
4  -0.0419296A 
5  -0.0550147A 
6  -0.0160652A 
7  0.15690409A 
8  -0.5042598OA
9  0.15716344A 
10 -0.5042532OA
11 -0.0130495A 
12 0.32247596C 
13 -0.2504117OA
14 -0.4678450OA
15 0.08064881C 


$$$$
