
     RDKit          3D

 22 21  0  0  0  0  0  0  0  0999 V2000
    4.1839    2.6567    1.9613 C   0  0  0  0  0  0  0  0  0  0  0  0
    4.2158    2.4287    0.4492 C   0  0  0  0  0  0  0  0  0  0  0  0
    3.5674    3.6197   -0.2357 C   0  0  0  0  0  0  0  0  0  0  0  0
    3.3883    1.1728    0.1609 C   0  0  0  0  0  0  0  0  0  0  0  0
    4.0664    0.0357    0.9313 C   0  0  0  0  0  0  0  0  0  0  0  0
    3.2590   -1.2107    0.6552 C   0  0  0  0  0  0  0  0  0  0  0  0
    3.2344   -1.5251   -0.8379 C   0  0  1  0  0  0  0  0  0  0  0  0
    4.6493   -1.7419   -1.3252 C   0  0  0  0  0  0  0  0  0  0  0  0
    2.4624   -2.7871   -1.0669 C   0  0  0  0  0  3  0  0  0  0  0  0
    1.0431   -2.7267   -0.6061 C   0  0  0  0  0  3  0  0  0  0  0  0
    0.3209   -1.4734   -1.0582 C   0  0  0  0  0  0  0  0  0  0  0  0
   -1.0915   -1.5622   -0.5161 C   0  0  1  0  0  0  0  0  0  0  0  0
   -1.7801   -2.8055   -1.0653 C   0  0  0  0  0  0  0  0  0  0  0  0
   -1.1282   -1.5038    0.9832 C   0  0  0  0  0  3  0  0  0  0  0  0
   -2.4805   -1.5880    1.5226 C   0  0  0  0  0  0  0  0  0  0  0  0
   -3.4873   -0.5782    1.3024 C   0  0  0  0  0  0  0  0  0  0  0  0
   -3.9711   -0.1952   -0.0148 C   0  0  2  0  0  0  0  0  0  0  0  0
   -3.0245    0.3671   -1.0035 C   0  0  0  0  0  2  0  0  0  0  0  0
   -5.2039    0.6473    0.0747 C   0  0  0  0  0  0  0  0  0  0  0  0
   -4.9049    1.9092    0.8554 C   0  0  0  0  0  0  0  0  0  0  0  0
   -3.8267    2.6850    0.1662 C   0  0  0  0  0  0  0  0  0  0  0  0
   -3.4921    4.1756    1.1128 Cl  0  0  0  0  0  0  0  0  0  0  0  0
  1  2  1  0
  2  3  1  0
  2  4  1  0
  4  5  1  0
  5  6  1  0
  6  7  1  0
  7  8  1  1
  7  9  1  0
  9 10  1  0
 10 11  1  0
 11 12  1  0
 12 13  1  1
 12 14  1  0
 14 15  1  0
 15 16  1  0
 16 17  1  0
 17 18  1  1
 17 19  1  0
 19 20  1  0
 20 21  1  0
 21 22  1  0
M  RAD  4   9   2  10   2  14   2  18   3
M  END
>  <fragInfo>  (1) 
1 2 3
4
5
6
7 8
9
10
11
12 13
14
15
16
17 18
19
20
21 22


>  <torsionInfo>  (1) 
2 4 0 1
4 5 1 2
5 6 2 3
6 7 3 4
7 9 4 5
9 10 5 6
10 11 6 7
11 12 7 8
12 14 8 9
14 15 9 10
15 16 10 11
16 17 11 12
17 19 12 13
19 20 13 14
20 21 14 15


>  <atomInfo>  (1) 
1  -0.0627736C 
2  -0.0471324C 
3  -0.0627736C 
4  -0.0509643C 
5  -0.0527981C 
6  -0.0504160C 
7  -0.0408749C 
8  -0.0622236C 
9  -0.0323485C 
10 -0.0346439C 
11 -0.0470182C 
12 -0.0408762C 
13 -0.0622237C 
14 -0.0357294C 
15 -0.0496437C 
16 -0.0498769C 
17 -0.0379619C 
18 -0.0317998C 
19 -0.0490275C 
20 -0.0393370C 
21 0.02230591C 
22 -0.1267167Cl


$$$$
