
     RDKit          3D

 17 17  0  0  0  0  0  0  0  0999 V2000
    4.5751   -1.9012    0.7975 C   0  0  0  0  0  0  0  0  0  0  0  0
    3.4316   -2.5452    1.2670 O   0  0  0  0  0  0  0  0  0  0  0  0
    2.1661   -1.9555    1.0935 C   0  0  0  0  0  0  0  0  0  0  0  0
    1.0695   -2.1608    1.7810 C   0  0  0  0  0  0  0  0  0  0  0  0
   -0.0279   -1.3518    1.2823 C   0  0  0  0  0  0  0  0  0  0  0  0
    0.4343   -0.6463    0.2684 C   0  0  0  0  0  0  0  0  0  0  0  0
   -0.3102    0.3296   -0.5693 C   0  0  1  0  0  0  0  0  0  0  0  0
   -1.7920    0.3329   -0.2525 C   0  0  0  0  0  0  0  0  0  0  0  0
   -2.2906   -1.0887   -0.5354 C   0  0  0  0  0  0  0  0  0  0  0  0
   -2.0023   -1.3282   -1.9939 C   0  0  0  0  0  0  0  0  0  0  0  0
   -3.0618   -1.5957   -2.7685 C   0  0  0  0  0  0  0  0  0  0  0  0
    0.2778    1.6689   -0.5037 C   0  0  0  0  0  0  0  0  0  0  0  0
   -0.3846    2.7745   -0.2044 C   0  0  0  0  0  0  0  0  0  0  0  0
    0.3796    4.0481   -0.1858 C   0  0  0  0  0  0  0  0  0  0  0  0
   -1.8098    2.7018    0.0894 C   0  0  0  0  0  0  0  0  0  0  0  0
   -2.5125    3.6783    0.3788 O   0  0  0  0  0  0  0  0  0  0  0  0
    1.8579   -0.9607    0.0556 C   0  0  0  0  0  0  0  0  0  0  0  0
  1  2  1  0
  2  3  1  0
  3  4  2  0
  4  5  1  0
  5  6  2  0
  6  7  1  0
  7  8  1  1
  8  9  1  0
  9 10  1  0
 10 11  2  0
  7 12  1  0
 12 13  2  3
 13 14  1  0
 13 15  1  0
 15 16  2  0
  6 17  1  0
 17  3  1  0
M  END
>  <fragInfo>  (1) 
3 4 5 6 17
1 2
7
8
9
10 11
12 13 14
15 16


>  <torsionInfo>  (1) 
2 3 1 0
6 7 0 2
7 8 2 3
7 12 2 6
8 9 3 4
9 10 4 5
13 15 6 7


>  <atomInfo>  (1) 
1  0.07702888C 
2  -0.5007683OA
3  0.09956209C 
4  -0.0239778C 
5  -0.0586695C 
6  -0.0556682C 
7  -0.0005804C 
8  -0.0396751C 
9  -0.0344707C 
10 -0.0917206C 
11 -0.1030824C 
12 -0.0711307C 
13 -0.0146448C 
14 -0.0368345C 
15 0.14494235C 
16 -0.2982801OA
17 0.02690571C 


$$$$
