
     RDKit          3D

 27 31  0  0  0  0  0  0  0  0999 V2000
    3.4760    0.7890   -1.2805 C   0  0  0  0  0  0  0  0  0  0  0  0
    2.0481    1.2379   -1.0955 C   0  0  0  0  0  3  0  0  0  0  0  0
    2.0077    2.2357    0.0434 C   0  0  0  0  0  0  0  0  0  0  0  0
    0.9294    3.2328   -0.2881 C   0  0  0  0  0  0  0  0  0  0  0  0
   -0.3608    2.8424    0.3828 C   0  0  0  0  0  0  0  0  0  0  0  0
   -0.6540    1.3648    0.2478 C   0  0  2  0  0  0  0  0  0  0  0  0
   -1.8155    1.2317   -0.7312 C   0  0  2  0  0  0  0  0  0  0  0  0
   -2.8978    1.9988   -0.0028 C   0  0  0  0  0  0  0  0  0  0  0  0
   -2.5320    1.9287    1.4915 C   0  0  0  0  0  3  0  0  0  0  0  0
   -1.3819    0.9742    1.5474 C   0  0  2  0  0  0  0  0  0  0  0  0
   -0.2302    1.2737    2.9169 S   0  0  0  0  0  0  0  0  0  0  0  0
    1.1870    0.1622    2.6088 C   0  0  0  0  0  0  0  0  0  0  0  0
    0.9874   -0.8926    1.8304 C   0  0  0  0  0  0  0  0  0  0  0  0
    1.9557   -1.9104    1.4429 C   0  0  0  0  0  3  0  0  0  0  0  0
   -1.7542   -0.4695    1.5779 C   0  0  0  0  0  0  0  0  0  0  0  0
   -2.7388   -0.7561    0.4888 C   0  0  0  0  0  0  0  0  0  0  0  0
   -2.2415   -0.2115   -0.8000 C   0  0  1  0  0  0  0  0  0  0  0  0
   -3.2601   -0.3661   -1.7454 O   0  0  0  0  0  0  0  0  0  0  0  0
   -3.2278   -1.6789   -1.9355 O   0  0  0  0  0  0  0  0  0  0  0  0
   -1.9867   -2.0550   -2.0150 O   0  0  0  0  0  0  0  0  0  0  0  0
   -1.2008   -1.1113   -1.4064 C   0  0  2  0  0  0  0  0  0  0  0  0
   -0.3182   -1.5616   -0.4347 O   0  0  0  0  0  0  0  0  0  0  0  0
    0.9426   -1.9581   -0.7745 C   0  0  0  0  0  0  0  0  0  0  0  0
    1.9844   -2.1334   -0.0211 C   0  0  0  0  0  0  0  0  0  0  0  0
    3.2560   -2.5658   -0.6472 C   0  0  0  0  0  0  0  0  0  0  0  0
    4.1085   -1.3775   -1.0425 C   0  0  0  0  0  0  0  0  0  0  0  0
    3.7176   -0.2240   -0.3580 O   0  0  0  0  0  0  0  0  0  0  0  0
  1  2  1  0
  2  3  1  0
  3  4  1  0
  4  5  1  0
  6  5  1  1
  6  7  1  0
  7  8  1  1
  8  9  1  0
 10  9  1  1
 10 11  1  0
 11 12  1  0
 12 13  2  3
 13 14  1  0
 10 15  1  0
 15 16  1  0
 16 17  1  0
 17 18  1  6
 18 19  1  0
 19 20  1  0
 21 20  1  1
 21 22  1  0
 22 23  1  0
 23 24  2  3
 24 25  1  0
 25 26  1  0
 26 27  1  0
 27  1  1  0
 10  6  1  0
 17  7  1  0
 24 14  1  0
 21 17  1  0
M  RAD  3   2   2   9   2  14   2
M  END
>  <fragInfo>  (1) 
1 2 3 4 5 6 7 8 9 10 11 12 13 14 15 16 17 18 19 20 21 22 23 24 25 26 27


>  <torsionInfo>  (1) 


>  <atomInfo>  (1) 
1  0.04974277C 
2  -0.0128118C 
3  -0.0478853C 
4  -0.0526189C 
5  -0.0487055C 
6  -0.0200359C 
7  0.00205637C 
8  -0.0424759C 
9  -0.0214218C 
10 0.02652093C 
11 -0.1269928SA
12 -0.0319876C 
13 -0.0699557C 
14 0.01208081C 
15 -0.0344069C 
16 -0.0125149C 
17 0.17423599C 
18 -0.1922564OA
19 -0.0632637OA
20 -0.1574824OA
21 0.26487388C 
22 -0.4663440OA
23 0.08667042C 
24 -0.0254305C 
25 -0.0044319C 
26 0.05043258C 
27 -0.3808170OA


$$$$
