
     RDKit          3D

 31 32  0  0  0  0  0  0  0  0999 V2000
    6.2372    1.4841   -1.5249 C   0  0  0  0  0  0  0  0  0  0  0  0
    5.0627    1.0179   -0.6875 C   0  0  0  0  0  0  0  0  0  0  0  0
    4.5949    2.1901    0.1254 C   0  0  0  0  0  0  0  0  0  0  0  0
    5.4599   -0.1231    0.2268 C   0  0  0  0  0  0  0  0  0  0  0  0
    5.9563   -1.3065   -0.5410 C   0  0  0  0  0  0  0  0  0  0  0  0
    4.9477   -1.8789   -1.4968 C   0  0  0  0  0  0  0  0  0  0  0  0
    3.6934   -2.3518   -0.8381 C   0  0  1  0  0  0  0  0  0  0  0  0
    3.9717   -3.4391    0.1767 C   0  0  0  0  0  0  0  0  0  0  0  0
    2.8748   -1.2392   -0.2282 C   0  0  0  0  0  3  0  0  0  0  0  0
    1.6511   -1.8703    0.3931 C   0  0  0  0  0  0  0  0  0  0  0  0
    0.7413   -0.8686    1.0410 C   0  0  0  0  0  0  0  0  0  0  0  0
    0.2411    0.1585    0.0272 C   0  0  1  0  0  0  0  0  0  0  0  0
    1.4579    0.8646   -0.5404 C   0  0  0  0  0  0  0  0  0  0  0  0
   -0.4347   -0.5486   -1.1227 C   0  0  0  0  0  3  0  0  0  0  0  0
   -0.5507   -2.0521   -0.8336 C   0  0  0  0  0  0  0  0  0  0  0  0
   -2.0482   -2.3165   -0.7291 C   0  0  2  0  0  0  0  0  0  0  0  0
   -2.3500   -3.6578   -0.3504 N   0  0  0  0  0  0  0  0  0  0  0  0
   -2.7441   -1.8706   -1.9925 C   0  0  0  0  0  0  0  0  0  0  0  0
   -2.7484   -0.3598   -2.0959 C   0  0  0  0  0  0  0  0  0  0  0  0
   -3.2203    0.2734   -0.7830 C   0  0  2  0  0  0  0  0  0  0  0  0
   -2.3606   -0.1885    0.2054 O   0  0  0  0  0  0  0  0  0  0  0  0
   -4.6430   -0.1752   -0.5759 C   0  0  0  0  0  0  0  0  0  0  0  0
   -5.5477    0.9350   -0.1076 C   0  0  0  0  0  0  0  0  0  0  0  0
   -4.7984    2.1677    0.3151 C   0  0  1  0  0  0  0  0  0  0  0  0
   -4.5407    2.2294    1.6604 O   0  0  0  0  0  0  0  0  0  0  0  0
   -3.7303    2.4790   -0.4872 O   0  0  0  0  0  0  0  0  0  0  0  0
   -2.7642    3.1262    0.2865 C   0  0  0  0  0  0  0  0  0  0  0  0
   -1.4479    2.9707   -0.4348 C   0  0  0  0  0  0  0  0  0  0  0  0
   -0.4467    2.4466    0.3442 O   0  0  0  0  0  0  0  0  0  0  0  0
   -0.6159    1.1425    0.7176 C   0  0  1  0  0  0  0  0  0  0  0  0
   -1.8980    0.7609    0.9754 O   0  0  0  0  0  0  0  0  0  0  0  0
  1  2  1  0
  2  3  1  0
  2  4  1  0
  4  5  1  0
  5  6  1  0
  6  7  1  0
  7  8  1  1
  7  9  1  0
  9 10  1  0
 10 11  1  0
 11 12  1  0
 12 13  1  6
 12 14  1  0
 14 15  1  0
 15 16  1  0
 16 17  1  6
 16 18  1  0
 18 19  1  0
 20 19  1  6
 20 21  1  0
 20 22  1  0
 22 23  1  0
 23 24  1  0
 24 25  1  1
 24 26  1  0
 26 27  1  0
 27 28  1  0
 28 29  1  0
 30 29  1  6
 30 31  1  0
 30 12  1  0
 31 21  1  0
M  RAD  2   9   2  14   2
M  END
>  <fragInfo>  (1) 
12 13 14 15 16 17 18 19 20 21 22 23 24 25 26 27 28 29 30 31
1 2 3
4
5
6
7 8
9
10
11


>  <torsionInfo>  (1) 
11 12 8 0
2 4 1 2
4 5 2 3
5 6 3 4
6 7 4 5
7 9 5 6
9 10 6 7
10 11 7 8


>  <atomInfo>  (1) 
1  -0.0627736C 
2  -0.0471324C 
3  -0.0627736C 
4  -0.0509643C 
5  -0.0527983C 
6  -0.0504266C 
7  -0.0411601C 
8  -0.0622342C 
9  -0.0357266C 
10 -0.0491991C 
11 -0.0423255C 
12 0.02476359C 
13 -0.0543801C 
14 -0.0259696C 
15 -0.0341337C 
16 0.00427328C 
17 -0.3276989NA
18 -0.0353909C 
19 -0.0220659C 
20 0.09333383C 
21 -0.2306770OA
22 -0.0187205C 
23 0.00072396C 
24 0.15424178C 
25 -0.3679953OA
26 -0.3505109OA
27 0.07328201C 
28 0.07344856C 
29 -0.3467838OA
30 0.19641481C 
31 -0.2036109OA


$$$$
