
     RDKit          3D

  9  8  0  0  0  0  0  0  0  0999 V2000
    2.6861    0.2414    0.6729 O   0  0  0  0  0  0  0  0  0  0  0  0
    2.5037   -0.4518   -0.4271 O   0  0  0  0  0  0  0  0  0  0  0  0
    1.2955   -0.8577   -0.4856 C   0  0  0  0  0  3  0  0  0  0  0  0
    0.2360   -0.0755   -0.7270 O   0  0  0  0  0  0  0  0  0  0  0  0
   -0.5893    0.0605    0.3794 C   0  0  2  0  0  0  0  0  0  0  0  0
   -1.9877   -0.4998   -0.0526 C   0  0  0  0  0  0  0  0  0  0  0  0
   -1.9082   -2.0704    0.3397 C   0  0  0  0  0  2  0  0  0  0  0  0
   -0.9591    1.4802    0.7294 C   0  0  0  0  0  3  0  0  0  0  0  0
   -1.2769    2.1731   -0.4291 O   0  0  0  0  0  0  0  0  0  0  0  0
  1  2  1  0
  2  3  1  0
  3  4  1  0
  4  5  1  0
  5  6  1  6
  6  7  1  0
  5  8  1  0
  8  9  1  0
M  RAD  3   3   2   7   3   8   2
M  END
>  <fragInfo>  (1) 
1 2
3
4
5
6 7
8 9


>  <torsionInfo>  (1) 
2 3 0 1
3 4 1 2
4 5 2 3
5 6 3 4
5 8 3 5


>  <atomInfo>  (1) 
1  -0.2489199OA
2  -0.2014091OA
3  0.24549311C 
4  -0.3395294OA
5  0.08979195C 
6  -0.0205344C 
7  -0.0324261C 
8  0.10864549C 
9  -0.3875979OA


$$$$
