
     RDKit          3D

 16 17  0  0  0  0  0  0  0  0999 V2000
    0.9688    0.7293    1.5339 O   0  0  0  0  0  0  0  0  0  0  0  0
   -0.3456    0.3397    1.7597 C   0  0  0  0  0  0  0  0  0  0  0  0
   -0.3753   -1.1761    1.8464 C   0  0  0  0  0  3  0  0  0  0  0  0
   -1.3510   -1.6939    0.9303 N   0  0  0  0  0  0  0  0  0  0  0  0
   -1.1514   -1.2959   -0.4256 C   0  0  2  0  0  0  0  0  0  0  0  0
    0.2744   -1.2013   -0.8438 C   0  0  0  0  0  0  0  0  0  0  0  0
    1.1753   -1.6611    0.0887 O   0  0  0  0  0  0  0  0  0  0  0  0
   -1.8466   -0.0084   -0.7917 C   0  0  1  0  0  0  0  0  0  0  0  0
   -2.6792    0.4580    0.2103 O   0  0  0  0  0  0  0  0  0  0  0  0
   -0.8478    1.0395   -1.1924 C   0  0  1  0  0  0  0  0  0  0  0  0
   -1.1955    1.7427   -2.3212 O   0  0  0  0  0  0  0  0  0  0  0  0
   -0.3863    1.8948   -0.0518 C   0  0  0  0  0  3  0  0  0  0  0  0
    1.0291    1.5488    0.3994 C   0  0  2  0  0  0  0  0  0  0  0  0
    1.7158    0.7565   -0.7015 C   0  0  0  0  0  0  0  0  0  0  0  0
    2.6253   -0.1041   -0.0695 O   0  0  0  0  0  0  0  0  0  0  0  0
    2.3901   -1.3687   -0.3710 O   0  0  0  0  0  0  0  0  0  0  0  0
  1  2  1  0
  2  3  1  0
  3  4  1  0
  4  5  1  0
  5  6  1  1
  6  7  1  0
  5  8  1  0
  8  9  1  1
  8 10  1  0
 10 11  1  6
 10 12  1  0
 12 13  1  0
 13 14  1  6
 14 15  1  0
 15 16  1  0
 13  1  1  0
 16  7  1  0
M  RAD  2   3   2  12   2
M  END
>  <fragInfo>  (1) 
1 2 3 4 5 6 7 8 9 10 11 12 13 14 15 16


>  <torsionInfo>  (1) 


>  <atomInfo>  (1) 
1  -0.3735990OA
2  0.06405442C 
3  0.04838997C 
4  -0.3027568NA
5  0.06277390C 
6  0.10327464C 
7  -0.2044214OA
8  0.09788610C 
9  -0.3886880OA
10 0.08733356C 
11 -0.3899573OA
12 0.02408118C 
13 0.09001751C 
14 0.11189566C 
15 -0.2034156OA
16 -0.0679673OA


$$$$
