
     RDKit          3D

 12 11  0  0  0  0  0  0  0  0999 V2000
    3.6066    0.6286   -0.7918 O   0  0  0  0  0  0  0  0  0  0  0  0
    3.5166   -0.4020    0.1623 C   0  0  0  0  0  0  0  0  0  0  0  0
    2.1317   -1.0553    0.0801 C   0  0  0  0  0  3  0  0  0  0  0  0
    1.2884   -0.3137    0.9931 N   0  0  0  0  0  0  0  0  0  0  0  0
   -0.0985   -0.3848    0.5459 C   0  0  2  0  0  0  0  0  0  0  0  0
   -0.5072   -1.8444    0.5941 C   0  0  0  0  0  0  0  0  0  0  0  0
   -0.0941    0.1012   -0.7640 O   0  0  0  0  0  0  0  0  0  0  0  0
   -1.3495    0.0891   -1.3144 C   0  0  1  0  0  0  0  0  0  0  0  0
   -1.9329   -1.1522   -1.3857 O   0  0  0  0  0  0  0  0  0  0  0  0
   -2.2806    1.0779   -0.6944 C   0  0  0  0  0  0  0  0  0  0  0  0
   -2.4901    0.8935    0.6591 O   0  0  0  0  0  0  0  0  0  0  0  0
   -1.7904    2.3621   -0.8905 O   0  0  0  0  0  0  0  0  0  0  0  0
  1  2  1  0
  2  3  1  0
  3  4  1  0
  4  5  1  0
  5  6  1  6
  5  7  1  0
  7  8  1  0
  8  9  1  1
  8 10  1  0
 10 11  1  0
 10 12  1  0
M  RAD  1   3   2
M  END
>  <fragInfo>  (1) 
10 11 12
1 2
3
4
5 6
7
8 9


>  <torsionInfo>  (1) 
8 10 6 0
2 3 1 2
3 4 2 3
4 5 3 4
5 7 4 5
7 8 5 6


>  <atomInfo>  (1) 
1  -0.3946892OA
2  0.06011303C 
3  0.04988553C 
4  -0.2855200NA
5  0.10855425C 
6  -0.0249188C 
7  -0.3297753OA
8  0.20760227C 
9  -0.3639057OA
10 0.20380593C 
11 -0.3640852OA
12 -0.3640852OA


$$$$
