
     RDKit          3D

 31 32  0  0  0  0  0  0  0  0999 V2000
   -1.7367    2.6230   -0.5440 C   0  0  0  0  0  0  0  0  0  0  0  0
   -2.2963    3.3536    0.6549 C   0  0  1  0  0  0  0  0  0  0  0  0
   -3.5202    4.1167    0.1762 C   0  0  0  0  0  0  0  0  0  0  0  0
   -2.7924    2.3565    1.7062 C   0  0  0  0  0  0  0  0  0  0  0  0
   -3.3107    1.1530    0.9379 C   0  0  0  0  0  0  0  0  0  0  0  0
   -4.7304    0.8199    1.2938 C   0  0  0  0  0  0  0  0  0  0  0  0
   -4.8121   -0.6928    1.4790 C   0  0  1  0  0  0  0  0  0  0  0  0
   -6.2201   -1.1088    1.1826 C   0  0  0  0  0  0  0  0  0  0  0  0
   -3.8012   -1.3970    0.5775 C   0  0  0  0  0  3  0  0  0  0  0  0
   -3.9000   -0.8865   -0.8260 C   0  0  0  0  0  0  0  0  0  0  0  0
   -2.5849   -0.6426   -1.4843 C   0  0  0  0  0  0  0  0  0  0  0  0
   -1.4214   -1.2978   -0.8072 C   0  0  2  0  0  0  0  0  0  0  0  0
   -0.1764   -0.9888   -1.5917 C   0  0  0  0  0  0  0  0  0  0  0  0
    1.0595   -0.9074   -0.7776 C   0  0  1  0  0  0  0  0  0  0  0  0
    2.0333    0.0195   -1.4736 C   0  0  0  0  0  0  0  0  0  0  0  0
    3.3266    0.1657   -0.7165 C   0  0  2  0  0  0  0  0  0  0  0  0
    4.0425   -1.1509   -0.5416 C   0  0  0  0  0  0  0  0  0  0  0  0
    3.1465    0.8950    0.5924 C   0  0  0  0  0  0  0  0  0  0  0  0
    4.4995    0.9842    1.2634 C   0  0  0  0  0  3  0  0  0  0  0  0
    5.5106    1.7325    0.4243 C   0  0  2  0  0  0  0  0  0  0  0  0
    5.7407    1.0165   -0.7483 O   0  0  0  0  0  0  0  0  0  0  0  0
    6.8108    1.7521    1.1993 C   0  0  0  0  0  0  0  0  0  0  0  0
    7.2229    0.3062    1.4171 C   0  0  0  0  0  0  0  0  0  0  0  0
   -1.5346   -2.7295   -0.5649 C   0  0  1  0  0  0  0  0  0  0  0  0
   -2.0176   -3.5384   -1.5160 O   0  0  0  0  0  0  0  0  0  0  0  0
   -0.8886   -3.4011    0.9120 S   0  0  0  0  0  0  0  0  0  0  0  0
    0.8674   -2.9489    1.0476 C   0  0  0  0  0  0  0  0  0  0  0  0
    0.9244   -1.5654    1.6431 C   0  0  0  0  0  0  0  0  0  0  0  0
    0.8878   -0.4726    0.6248 C   0  0  0  0  0  3  0  0  0  0  0  0
   -0.2314    0.5024    0.8524 C   0  0  0  0  0  0  0  0  0  0  0  0
   -0.0975    1.9318   -0.2150 S   0  0  0  0  0  0  0  0  0  0  0  0
  1  2  1  0
  2  3  1  6
  2  4  1  0
  4  5  1  0
  5  6  1  0
  6  7  1  0
  7  8  1  6
  7  9  1  0
  9 10  1  0
 10 11  1  0
 12 11  1  6
 12 13  1  0
 13 14  1  0
 14 15  1  6
 15 16  1  0
 16 17  1  1
 16 18  1  0
 18 19  1  0
 19 20  1  0
 20 21  1  6
 20 22  1  0
 22 23  1  0
 12 24  1  0
 24 25  1  6
 24 26  1  0
 26 27  1  0
 27 28  1  0
 28 29  1  0
 29 30  1  0
 30 31  1  0
 31  1  1  0
 29 14  1  0
M  RAD  3   9   2  19   2  29   2
M  END
>  <fragInfo>  (1) 
1 2 3 4 5 6 7 8 9 10 11 12 13 14 24 25 26 27 28 29 30 31
15
16 17
18
19
20 21
22 23


>  <torsionInfo>  (1) 
14 15 0 1
15 16 1 2
16 18 2 3
18 19 3 4
19 20 4 5
20 22 5 6


>  <atomInfo>  (1) 
1  -0.0041554C 
2  -0.0351630C 
3  -0.0617205C 
4  -0.0499137C 
5  -0.0527587C 
6  -0.0504259C 
7  -0.0411603C 
8  -0.0622342C 
9  -0.0357381C 
10 -0.0495271C 
11 -0.0468439C 
12 -0.0054895C 
13 -0.0436897C 
14 -0.0337118C 
15 -0.0472474C 
16 -0.0436243C 
17 -0.0624871C 
18 -0.0450140C 
19 -0.0097140C 
20 0.05690366C 
21 -0.3928401OA
22 -0.0295777C 
23 -0.0629093C 
24 0.10204256C 
25 -0.3821708OA
26 -0.1305039SA
27 -0.0036170C 
28 -0.0367217C 
29 -0.0103120C 
30 -0.0002017C 
31 -0.1611158SA


$$$$
