
     RDKit          3D

 54 54  0  0  0  0  0  0  0  0999 V2000
    9.5339    1.5420   -2.8463 C   0  0  0  0  0  0  0  0  0  0  0  0
   10.9733    1.3022   -2.5364 C   0  0  0  0  0  0  0  0  0  0  0  0
   11.8500    1.2894   -3.7427 C   0  0  0  0  0  0  0  0  0  0  0  0
   11.5153    2.0346   -1.3811 C   0  0  0  0  0  0  0  0  0  0  0  0
   10.9377    1.8009   -0.0470 C   0  0  0  0  0  0  0  0  0  0  0  0
   11.0298    0.4336    0.5092 C   0  0  0  0  0  0  0  0  0  0  0  0
   10.2857   -0.5561   -0.3476 C   0  0  1  0  0  0  0  0  0  0  0  0
   10.4741   -1.9468    0.3044 C   0  0  0  0  0  0  0  0  0  0  0  0
    8.7749   -0.2840   -0.2004 C   0  0  0  0  0  3  0  0  0  0  0  0
    8.0872   -1.2958   -1.0801 C   0  0  0  0  0  3  0  0  0  0  0  0
    6.7483   -0.7784   -1.5199 C   0  0  0  0  0  0  0  0  0  0  0  0
    5.8913   -0.5237   -0.3001 C   0  0  2  0  0  0  0  0  0  0  0  0
    6.5999    0.5104    0.5672 C   0  0  0  0  0  0  0  0  0  0  0  0
    5.8976   -1.8226    0.5163 C   0  0  0  0  0  3  0  0  0  0  0  0
    5.0375   -1.6113    1.7616 C   0  0  0  0  0  0  0  0  0  0  0  0
    3.6439   -1.2794    1.3157 C   0  0  1  0  0  0  0  0  0  0  0  0
    2.7647   -1.0632    2.5286 C   0  0  0  0  0  0  0  0  0  0  0  0
    3.5910   -0.1037    0.3834 C   0  0  0  0  0  0  0  0  0  0  0  0
    2.1577    0.1554   -0.0122 C   0  0  0  0  0  0  0  0  0  0  0  0
    1.5891   -1.0733   -0.7103 C   0  0  2  0  0  0  0  0  0  0  0  0
    1.6154   -2.2832    0.1705 C   0  0  0  0  0  0  0  0  0  0  0  0
    2.4342   -1.3573   -1.9520 C   0  0  0  0  0  2  0  0  0  0  0  0
    0.2086   -0.7150   -1.2056 C   0  0  0  0  0  0  0  0  0  0  0  0
    0.3659    0.4437   -2.1647 C   0  0  0  0  0  3  0  0  0  0  0  0
    0.2871    1.6557   -1.5017 O   0  0  0  0  0  0  0  0  0  0  0  0
   -1.0119    2.1437   -1.6294 C   0  0  0  0  0  0  0  0  0  0  0  0
   -1.9126    1.1047   -0.9993 C   0  0  0  0  0  0  0  0  0  0  0  0
   -1.6559    0.8301    0.4292 C   0  0  0  0  0  2  0  0  0  0  0  0
   -2.8702    0.4947   -1.7174 C   0  0  0  0  0  0  0  0  0  0  0  0
   -2.9848    0.8925   -3.1254 C   0  0  0  0  0  3  0  0  0  0  0  0
   -3.9847    1.9085   -3.4673 C   0  0  0  0  0  0  0  0  0  0  0  0
   -5.3670    1.5338   -3.4270 C   0  0  0  0  0  0  0  0  0  0  0  0
   -5.9733    0.4098   -3.1879 C   0  0  0  0  0  0  0  0  0  0  0  0
   -7.4613    0.2805   -3.2106 C   0  0  0  0  0  0  0  0  0  0  0  0
   -8.0758   -0.2508   -1.9725 C   0  0  0  0  0  0  0  0  0  0  0  0
   -7.6052   -1.6525   -1.6289 C   0  0  0  0  0  0  0  0  0  0  0  0
   -8.2612   -2.1614   -0.3774 C   0  0  0  0  0  0  0  0  0  0  0  0
   -7.7330   -2.5800   -2.7974 C   0  0  0  0  0  0  0  0  0  0  0  0
   -3.6938   -0.5196   -1.0489 C   0  0  1  0  0  0  0  0  0  0  0  0
   -3.7926   -1.8060   -1.8424 C   0  0  0  0  0  2  0  0  0  0  0  0
   -3.2953   -0.7419    0.3657 C   0  0  0  0  0  0  0  0  0  0  0  0
   -4.0579   -1.7367    1.1449 C   0  0  0  0  0  3  0  0  0  0  0  0
   -5.4968   -1.4227    1.3697 C   0  0  0  0  0  0  0  0  0  0  0  0
   -5.6989   -0.1251    2.1269 C   0  0  2  0  0  0  0  0  0  0  0  0
   -5.0161   -0.2456    3.4739 C   0  0  0  0  0  0  0  0  0  0  0  0
   -4.5011    1.0912    3.9565 C   0  0  2  0  0  0  0  0  0  0  0  0
   -5.3538    1.5369    5.1234 C   0  0  0  0  0  0  0  0  0  0  0  0
   -4.3967    2.1028    2.8674 C   0  0  0  0  0  3  0  0  0  0  0  0
   -5.5119    3.1121    2.9882 C   0  0  0  0  0  0  0  0  0  0  0  0
   -6.7604    2.4136    3.3643 C   0  0  0  0  0  0  0  0  0  0  0  0
   -7.4449    1.3093    3.1458 C   0  0  0  0  0  0  0  0  0  0  0  0
   -7.1834    0.1245    2.2836 C   0  0  2  0  0  0  0  0  0  0  0  0
   -7.8968   -1.0991    2.8203 C   0  0  0  0  0  3  0  0  0  0  0  0
   -7.2966   -1.4211    4.1632 C   0  0  0  0  0  1  0  0  0  0  0  0
  1  2  1  0
  2  3  1  0
  2  4  1  0
  4  5  1  0
  5  6  1  0
  6  7  1  0
  7  8  1  1
  7  9  1  0
  9 10  1  0
 10 11  1  0
 11 12  1  0
 12 13  1  1
 12 14  1  0
 14 15  1  0
 15 16  1  0
 16 17  1  1
 16 18  1  0
 18 19  1  0
 19 20  1  0
 20 21  1  1
 20 22  1  0
 20 23  1  0
 23 24  1  0
 24 25  1  0
 25 26  1  0
 26 27  1  0
 27 28  1  0
 27 29  2  3
 29 30  1  0
 30 31  1  0
 31 32  1  0
 32 33  2  3
 33 34  1  0
 34 35  1  0
 35 36  1  0
 36 37  1  0
 36 38  1  0
 29 39  1  0
 39 40  1  6
 39 41  1  0
 41 42  1  0
 42 43  1  0
 44 43  1  6
 44 45  1  0
 45 46  1  0
 46 47  1  1
 46 48  1  0
 48 49  1  0
 49 50  1  0
 50 51  2  3
 44 52  1  0
 52 53  1  1
 53 54  1  0
 52 51  1  0
M  RAD  8   9   2  10   2  14   2  22   3  24   2  28   3  30   2  40   3
M  RAD  4  42   2  48   2  53   2  54   2
M  END
>  <fragInfo>  (1) 
44 45 46 47 48 49 50 51 52
1 2 3
4
5
6
7 8
9
10
11
12 13
14
15
16 17
18
19
20 21 22
23
24
25
26
27 28 29
30
31
32 33
34
35
36 37 38
39 40
41
42
43
53 54


>  <torsionInfo>  (1) 
43 44 30 0
52 53 0 31
2 4 1 2
4 5 2 3
5 6 3 4
6 7 4 5
7 9 5 6
9 10 6 7
10 11 7 8
11 12 8 9
12 14 9 10
14 15 10 11
15 16 11 12
16 18 12 13
18 19 13 14
19 20 14 15
20 23 15 16
23 24 16 17
24 25 17 18
25 26 18 19
26 27 19 20
29 30 20 21
29 39 20 27
30 31 21 22
31 32 22 23
33 34 23 24
34 35 24 25
35 36 25 26
39 41 27 28
41 42 28 29
42 43 29 30


>  <atomInfo>  (1) 
1  -0.0627736C 
2  -0.0471324C 
3  -0.0627736C 
4  -0.0509643C 
5  -0.0527981C 
6  -0.0504160C 
7  -0.0408749C 
8  -0.0622236C 
9  -0.0323485C 
10 -0.0346439C 
11 -0.0470180C 
12 -0.0408661C 
13 -0.0622235C 
14 -0.0354766C 
15 -0.0473238C 
16 -0.0439758C 
17 -0.0624988C 
18 -0.0501699C 
19 -0.0472232C 
20 -0.0265905C 
21 -0.0592593C 
22 -0.0285982C 
23 -0.0184341C 
24 0.08462821C 
25 -0.3711428OA
26 0.06873902C 
27 -0.0405249C 
28 -0.0032393C 
29 -0.0609615C 
30 -0.0093280C 
31 -0.0278654C 
32 -0.0879211C 
33 -0.0885071C 
34 -0.0348295C 
35 -0.0474945C 
36 -0.0468380C 
37 -0.0627626C 
38 -0.0627626C 
39 -0.0159424C 
40 -0.0273941C 
41 -0.0432524C 
42 -0.0376867C 
43 -0.0467203C 
44 -0.0342789C 
45 -0.0469844C 
46 -0.0405687C 
47 -0.0622124C 
48 -0.0319805C 
49 -0.0316704C 
50 -0.0879423C 
51 -0.0848236C 
52 -0.0167545C 
53 -0.0234071C 
54 -0.0046962C 


$$$$
