
     RDKit          3D

 58 60  0  0  0  0  0  0  0  0999 V2000
   -2.0239   -0.2512   -0.2230 C   0  0  1  0  0  0  0  0  0  0  0  0
   -1.2962    0.6107   -1.2359 C   0  0  2  0  0  0  0  0  0  0  0  0
   -1.5950    0.1419   -2.6424 C   0  0  0  0  0  0  0  0  0  0  0  0
    0.1901    0.3444   -0.9999 C   0  0  0  0  0  0  0  0  0  0  0  0
    1.0687    1.0392   -1.9851 C   0  0  0  0  0  0  0  0  0  0  0  0
    2.1355    0.0612   -2.4310 C   0  0  0  0  0  0  0  0  0  0  0  0
    2.5653   -0.7721   -1.2424 C   0  0  1  0  0  0  0  0  0  0  0  0
    2.7098   -2.2336   -1.6072 C   0  0  0  0  0  0  0  0  0  0  0  0
    3.8983   -0.2204   -0.7496 C   0  0  0  0  0  3  0  0  0  0  0  0
    4.9589   -0.7375   -1.7219 C   0  0  0  0  0  0  0  0  0  0  0  0
    5.3255   -2.1484   -1.2498 C   0  0  0  0  0  0  0  0  0  0  0  0
    6.4962   -2.0099   -0.3069 C   0  0  2  0  0  0  0  0  0  0  0  0
    6.3320   -2.9857    0.8562 C   0  0  0  0  0  0  0  0  0  0  0  0
    6.5139   -0.6173    0.3202 C   0  0  0  0  0  3  0  0  0  0  0  0
    7.8869   -0.3978    0.9272 C   0  0  0  0  0  0  0  0  0  0  0  0
    8.2767    1.0582    0.8660 C   0  0  2  0  0  0  0  0  0  0  0  0
    9.4542    1.2756    1.7695 C   0  0  0  0  0  2  0  0  0  0  0  0
    7.1188    1.9622    1.2162 C   0  0  0  0  0  0  0  0  0  0  0  0
    6.2440    2.1211    0.0074 C   0  0  0  0  0  0  0  0  0  0  0  0
    4.9564    2.8341    0.3046 C   0  0  2  0  0  0  0  0  0  0  0  0
    4.9055    4.1196   -0.1924 O   0  0  0  0  0  0  0  0  0  0  0  0
    4.6483    2.7259    1.7641 C   0  0  0  0  0  0  0  0  0  0  0  0
    3.5288    1.7448    2.0433 C   0  0  0  0  0  0  0  0  0  0  0  0
    2.2348    2.4064    1.6910 C   0  0  1  0  0  0  0  0  0  0  0  0
    2.2944    3.1548    0.3878 C   0  0  0  0  0  0  0  0  0  0  0  0
    1.1269    1.6170    1.8397 O   0  0  0  0  0  0  0  0  0  0  0  0
    1.3728    0.2706    1.9451 C   0  0  0  0  0  0  0  0  0  0  0  0
    0.2637   -0.5009    1.2724 C   0  0  0  0  0  3  0  0  0  0  0  0
   -1.2524    0.0195    1.3394 S   0  0  1  0  0  0  0  0  0  0  0  0
   -1.1732    2.1022    1.4024 C   0  0  0  0  0  2  0  0  0  0  0  0
   -2.5044   -0.3350    2.4967 C   0  0  0  0  0  0  0  0  0  0  0  0
   -3.6430   -1.6040    1.8854 S   0  0  0  0  0  0  0  0  0  0  0  0
   -4.1916   -1.2242    0.2026 C   0  0  2  0  0  0  0  0  0  0  0  0
   -3.9350   -2.2628   -0.8271 C   0  0  0  0  0  2  0  0  0  0  0  0
   -3.5130    0.0190   -0.2086 C   0  0  2  0  0  0  0  0  0  0  0  0
   -4.0660    0.6499   -1.4274 C   0  0  0  0  0  0  0  0  0  0  0  0
   -3.4887    2.0013   -1.6838 C   0  0  0  0  0  0  0  0  0  0  0  0
   -3.9284    3.0966   -0.3159 S   0  0  0  0  0  0  0  0  0  0  0  0
   -3.2908    4.7597   -0.5136 C   0  0  0  0  0  0  0  0  0  0  0  0
   -3.9555    5.4099   -1.6792 C   0  0  2  0  0  0  0  0  0  0  0  0
   -3.7601    4.7218   -2.9915 C   0  0  0  0  0  0  0  0  0  0  0  0
   -3.8235    6.8980   -1.7385 C   0  0  0  0  0  0  0  0  0  0  0  0
   -4.4087    7.5856   -0.5414 C   0  0  0  0  0  3  0  0  0  0  0  0
   -4.2245    9.0785   -0.6972 C   0  0  0  0  0  2  0  0  0  0  0  0
   -5.9977   -1.1781    0.3614 S   0  0  0  0  0  0  0  0  0  0  0  0
   -6.4356   -2.9671    0.5286 C   0  0  1  0  0  0  0  0  0  0  0  0
   -6.7813   -3.4637   -0.8733 C   0  0  0  0  0  0  0  0  0  0  0  0
   -5.2297   -3.7683    1.0378 C   0  0  0  0  0  0  0  0  0  0  0  0
   -4.8080   -4.8341    0.1141 C   0  0  0  0  0  0  0  0  0  0  0  0
   -3.4643   -5.4110    0.2439 C   0  0  2  0  0  0  0  0  0  0  0  0
   -3.4238   -6.8927    0.2436 C   0  0  0  0  0  0  0  0  0  0  0  0
   -2.4340   -4.7086    1.0144 C   0  0  1  0  0  0  0  0  0  0  0  0
   -1.7888   -5.5433    2.1074 C   0  0  0  0  0  3  0  0  0  0  0  0
   -1.1079   -6.7717    1.5644 C   0  0  0  0  0  0  0  0  0  0  0  0
   -1.3448   -4.0217    0.2063 C   0  0  0  0  0  0  0  0  0  0  0  0
   -1.2533   -2.5380    0.5042 C   0  0  0  0  0  0  0  0  0  0  0  0
   -1.7110   -1.6784   -0.6448 C   0  0  2  0  0  0  0  0  0  0  0  0
   -0.6524   -1.7523   -1.7332 C   0  0  0  0  0  2  0  0  0  0  0  0
  1  2  1  6
  2  3  1  6
  2  4  1  0
  4  5  1  0
  5  6  1  0
  6  7  1  0
  7  8  1  6
  7  9  1  0
  9 10  1  0
 10 11  1  0
 11 12  1  0
 12 13  1  1
 12 14  1  0
 14 15  1  0
 15 16  1  0
 16 17  1  1
 16 18  1  0
 18 19  1  0
 19 20  1  0
 20 21  1  1
 20 22  1  0
 22 23  1  0
 23 24  1  0
 24 25  1  6
 24 26  1  0
 26 27  1  0
 27 28  1  0
 28 29  1  0
 29 30  1  6
 29 31  1  0
 31 32  1  0
 32 33  1  0
 33 34  1  6
 33 35  1  0
 35 36  1  6
 36 37  1  0
 37 38  1  0
 38 39  1  0
 39 40  1  0
 40 41  1  6
 40 42  1  0
 42 43  1  0
 43 44  1  0
 33 45  1  0
 45 46  1  0
 46 47  1  6
 46 48  1  0
 48 49  1  0
 49 50  1  0
 50 51  1  1
 50 52  1  0
 52 53  1  1
 53 54  1  0
 52 55  1  0
 55 56  1  0
 56 57  1  0
 57 58  1  6
 29  1  1  0
 35  1  1  0
 57  1  1  0
M  RAD  8   9   2  14   2  17   3  28   2  30   3  34   3  43   2  44   3
M  RAD  2  53   2  58   3
M  END
>  <fragInfo>  (1) 
1 2 3 4 5 6 7 8 9 10 11 12 13 14 15 16 17 18 19 20 21 22 23 24 25 26 27 28 29 30 31 32 33 34 35 45 46 47 48 49 50 51 52 55 56 57 58
36
37
38
39
40 41
42
43 44
53 54


>  <torsionInfo>  (1) 
35 36 0 1
52 53 0 8
36 37 1 2
37 38 2 3
38 39 3 4
39 40 4 5
40 42 5 6
42 43 6 7


>  <atomInfo>  (1) 
1  0.01230097C 
2  -0.0302228C 
3  -0.0612120C 
4  -0.0494065C 
5  -0.0527384C 
6  -0.0504255C 
7  -0.0411603C 
8  -0.0622342C 
9  -0.0357403C 
10 -0.0496542C 
11 -0.0501520C 
12 -0.0411397C 
13 -0.0622339C 
14 -0.0354661C 
15 -0.0467734C 
16 -0.0376355C 
17 -0.0317881C 
18 -0.0476932C 
19 -0.0267325C 
20 0.05409056C 
21 -0.3931294OA
22 -0.0245539C 
23 -0.0245511C 
24 0.05480521C 
25 -0.0386769C 
26 -0.3773735OA
27 0.05852409C 
28 0.02661145C 
29 -0.2142355S 
30 0.01357912C 
31 0.02609757C 
32 -0.1341127SA
33 0.06973311C 
34 -0.0063272C 
35 -0.0023418C 
36 -0.0378402C 
37 -0.0063481C 
38 -0.1617162SA
39 -0.0041660C 
40 -0.0348793C 
41 -0.0617099C 
42 -0.0465052C 
43 -0.0345922C 
44 -0.0314936C 
45 -0.1403820SA
46 0.00329819C 
47 -0.0532541C 
48 -0.0412375C 
49 -0.0493922C 
50 -0.0411310C 
51 -0.0622337C 
52 -0.0359916C 
53 -0.0383258C 
54 -0.0619691C 
55 -0.0496040C 
56 -0.0485812C 
57 -0.0239762C 
58 -0.0304055C 


$$$$
