
     RDKit          3D

 13 12  0  0  0  0  0  0  0  0999 V2000
    3.9351    2.5995   -0.3840 O   0  0  0  0  0  0  0  0  0  0  0  0
    3.2588    1.5501   -0.3758 C   0  0  0  0  0  0  0  0  0  0  0  0
    3.7702    0.4467    0.2763 O   0  0  0  0  0  0  0  0  0  0  0  0
    1.9506    1.5158   -1.0525 C   0  0  0  0  0  0  0  0  0  0  0  0
    1.3697    0.1787   -0.8942 C   0  0  0  0  0  0  0  0  0  0  0  0
    0.2363   -0.1088   -0.3153 C   0  0  0  0  0  0  0  0  0  0  0  0
   -0.1743   -1.5015   -0.2555 C   0  0  0  0  0  0  0  0  0  0  0  0
   -1.2800   -1.9339    0.2915 C   0  0  0  0  0  0  0  0  0  0  0  0
   -1.6257   -3.8107    0.2600 Br  0  0  0  0  0  0  0  0  0  0  0  0
   -2.3074   -1.0830    0.9453 C   0  0  0  0  0  0  0  0  0  0  0  0
   -1.9560    0.3476    0.9216 C   0  0  0  0  0  0  0  0  0  0  0  0
   -2.7851    1.1820    0.3060 C   0  0  0  0  0  0  0  0  0  0  0  0
   -4.3920    0.6174   -0.5391 Br  0  0  0  0  0  0  0  0  0  0  0  0
  1  2  2  0
  2  3  1  0
  2  4  1  0
  4  5  1  0
  5  6  2  3
  6  7  1  0
  7  8  2  3
  8  9  1  0
  8 10  1  0
 10 11  1  0
 11 12  2  3
 12 13  1  0
M  END
>  <fragInfo>  (1) 
1 2 3
4
5 6
7 8 9
10
11 12 13


>  <torsionInfo>  (1) 
2 4 0 1
4 5 1 2
6 7 2 3
8 10 3 4
10 11 4 5


>  <atomInfo>  (1) 
1  -0.2521102OA
2  0.30669911C 
3  -0.4810021OA
4  0.06375581C 
5  -0.0735106C 
6  -0.0648932C 
7  -0.0520719C 
8  -0.0011513C 
9  -0.0553116Br
10 -0.0022767C 
11 -0.0726632C 
12 -0.0225347C 
13 -0.0598176Br


$$$$
