
     RDKit          2D

 23 25  0  0  0  0  0  0  0  0999 V2000
   -5.6118    2.7025    0.0000 C   0  0  0  0  0  0  0  0  0  0  0  0
   -4.3724    3.5475    0.0000 C   0  0  0  0  0  0  0  0  0  0  0  0
   -4.4845    5.0433    0.0000 C   0  0  0  0  0  0  0  0  0  0  0  0
   -3.2451    5.8882    0.0000 C   0  0  0  0  0  0  0  0  0  0  0  0
   -3.3572    7.3840    0.0000 O   0  0  0  0  0  0  0  0  0  0  0  0
   -1.8937    5.2374    0.0000 C   0  0  0  0  0  0  0  0  0  0  0  0
   -0.6543    6.0824    0.0000 O   0  0  0  0  0  0  0  0  0  0  0  0
   -1.7816    3.7416    0.0000 C   0  0  0  0  0  0  0  0  0  0  0  0
   -0.4301    3.0908    0.0000 O   0  0  0  0  0  0  0  0  0  0  0  0
   -3.0209    2.8966    0.0000 C   0  0  0  0  0  0  0  0  0  0  0  0
   -2.9088    1.4008    0.0000 N   0  0  0  0  0  0  0  0  0  0  0  0
   -1.5574    0.7500    0.0000 C   0  0  0  0  0  0  0  0  0  0  0  0
   -0.3846    1.6852    0.0000 C   0  0  0  0  0  0  0  0  0  0  0  0
    1.0777    1.3515    0.0000 C   0  0  0  0  0  0  0  0  0  0  0  0
    2.0130    2.5242    0.0000 O   0  0  0  0  0  0  0  0  0  0  0  0
    1.7286    0.0000    0.0000 C   0  0  0  0  0  0  0  0  0  0  0  0
    1.0777   -1.3515    0.0000 O   0  0  0  0  0  0  0  0  0  0  0  0
    0.4471    0.1552    0.0000 C   0  0  0  0  0  0  0  0  0  0  0  0
    2.4292   -0.7994    0.0000 O   0  0  0  0  0  0  0  0  0  0  0  0
   -0.2508   -0.4013    0.0000 C   0  0  0  0  0  0  0  0  0  0  0  0
    0.2388   -2.5462    0.0000 O   0  0  0  0  0  0  0  0  0  0  0  0
   -1.5574   -0.7500    0.0000 C   0  0  0  0  0  0  0  0  0  0  0  0
   -0.3846   -1.6852    0.0000 O   0  0  0  0  0  0  0  0  0  0  0  0
  2  1  1  1
  2  3  1  0
  3  4  1  0
  4  5  1  6
  4  6  1  0
  6  7  1  6
  6  8  1  0
  8  9  1  1
  8 10  1  0
 10 11  1  1
 12 11  1  1
 12 13  1  0
 13 14  1  0
 14 15  1  1
 14 16  1  0
 16 17  1  0
 14 18  1  0
 18 19  1  1
 18 20  1  0
 20 21  1  1
 20 22  1  0
 22 23  1  1
 10  2  1  0
 22 12  1  0
 23 17  1  0
M  END
>  <fragInfo>  (1) 
12 13 14 15 16 17 18 19 20 21 22 23
1 2 3 4 5 6 7 8 9 10
11


>  <torsionInfo>  (1) 
11 12 2 0
10 11 1 2


>  <atomInfo>  (1) 
1  -0.0608233C 
2  -0.0236278C 
3  -0.0201755C 
4  0.08280077C 
5  -0.3903155OA
6  0.10722523C 
7  -0.3876533OA
8  0.09792987C 
9  -0.3886791OA
10 0.03843588C 
11 -0.3053972NA
12 0.04219747C 
13 -0.0008035C 
14 0.12106716C 
15 -0.3844586OA
16 0.11364186C 
17 -0.2331276OA
18 0.11368977C 
19 -0.3872001OA
20 0.11362161C 
21 -0.3873883OA
22 0.13668733C 
23 -0.2287442OA


$$$$
