
     RDKit          3D

 24 24  0  0  0  0  0  0  0  0999 V2000
   -3.2252   -2.2536    0.9964 C   0  0  0  0  0  0  0  0  0  0  0  0
   -3.2145   -1.5391   -0.3258 C   0  0  1  0  0  0  0  0  0  0  0  0
   -4.5551   -1.4846   -0.9710 C   0  0  0  0  0  0  0  0  0  0  0  0
   -4.9911   -0.0158   -1.0643 C   0  0  2  0  0  0  0  0  0  0  0  0
   -4.1613    0.5715   -2.0120 O   0  0  0  0  0  0  0  0  0  0  0  0
   -4.8398    0.5977    0.3099 C   0  0  2  0  0  0  0  0  0  0  0  0
   -5.5514    1.7952    0.4319 O   0  0  0  0  0  0  0  0  0  0  0  0
   -3.3820    0.7977    0.6048 C   0  0  1  0  0  0  0  0  0  0  0  0
   -3.1369    0.6659    1.9454 O   0  0  0  0  0  0  0  0  0  0  0  0
   -2.6034   -0.1607   -0.2155 C   0  0  1  0  0  0  0  0  0  0  0  0
   -1.2204   -0.2141    0.1510 N   0  0  0  0  0  0  0  0  0  0  0  0
   -0.4868   -0.8062   -0.9287 C   0  0  2  0  0  0  0  0  0  0  0  0
   -0.6865   -2.1484   -0.9373 O   0  0  0  0  0  0  0  0  0  0  0  0
    0.9700   -0.4413   -0.7638 C   0  0  0  0  0  3  0  0  0  0  0  0
    1.5409    0.0233   -1.9648 O   0  0  0  0  0  0  0  0  0  0  0  0
    2.0649    1.2926   -1.7382 O   0  0  0  0  0  0  0  0  0  0  0  0
    3.2843    1.0285   -1.4290 O   0  0  0  0  0  0  0  0  0  0  0  0
    3.5816    1.1811   -0.0576 C   0  0  1  0  0  0  0  0  0  0  0  0
    3.2762   -0.0745    0.5909 O   0  0  0  0  0  0  0  0  0  0  0  0
    5.2762    0.9151   -0.1850 C   0  0  2  0  0  0  0  0  0  0  0  0
    5.2044   -0.3061   -0.9630 O   0  0  0  0  0  0  0  0  0  0  0  0
    5.4648    0.2872    1.2186 C   0  0  0  0  0  0  0  0  0  0  0  0
    6.4087   -0.6693    1.2766 O   0  0  0  0  0  0  0  0  0  0  0  0
    4.9824    0.9579    2.2787 O   0  0  0  0  0  0  0  0  0  0  0  0
  2  1  1  1
  2  3  1  0
  3  4  1  0
  4  5  1  6
  4  6  1  0
  6  7  1  6
  6  8  1  0
  8  9  1  1
  8 10  1  0
 10 11  1  1
 11 12  1  0
 12 13  1  1
 12 14  1  0
 14 15  1  0
 15 16  1  0
 16 17  1  0
 17 18  1  0
 18 19  1  1
 18 20  1  0
 20 21  1  6
 20 22  1  0
 22 23  1  0
 22 24  1  0
 10  2  1  0
M  RAD  1  14   2
M  END
>  <fragInfo>  (1) 
1 2 3 4 5 6 7 8 9 10
11
12 13
14
15
16
17
18 19
20 21
22 23 24


>  <torsionInfo>  (1) 
10 11 0 1
11 12 1 2
12 14 2 3
14 15 3 4
15 16 4 5
16 17 5 6
17 18 6 7
18 20 7 8
20 22 8 9


>  <atomInfo>  (1) 
1  -0.0608219C 
2  -0.0235478C 
3  -0.0201741C 
4  0.08280079C 
5  -0.3903155OA
6  0.10722667C 
7  -0.3876533OA
8  0.09800955C 
9  -0.3886776OA
10 0.04048835C 
11 -0.2841871NA
12 0.13745379C 
13 -0.3755779OA
14 0.16837321C 
15 -0.1954147OA
16 -0.0647345OA
17 -0.1710663OA
18 0.22273393C 
19 -0.3634106OA
20 0.15799641C 
21 -0.3823989OA
22 0.18287750C 
23 -0.3658124OA
24 -0.3658124OA


$$$$
