
     RDKit          2D

 20 22  0  0  0  0  0  0  0  0999 V2000
   -3.9759    4.4021    0.0000 C   0  0  0  0  0  0  0  0  0  0  0  0
   -2.4926    4.6257    0.0000 O   0  0  0  0  0  0  0  0  0  0  0  0
   -1.5574    3.4529    0.0000 C   0  0  0  0  0  0  0  0  0  0  0  0
   -2.2082    2.1015    0.0000 C   0  0  0  0  0  0  0  0  0  0  0  0
   -3.1435    3.2742    0.0000 C   0  0  0  0  0  0  0  0  0  0  0  0
   -2.5954    4.6705    0.0000 C   0  0  0  0  0  0  0  0  0  0  0  0
   -1.1122    4.8941    0.0000 C   0  0  0  0  0  0  0  0  0  0  0  0
   -0.0950    3.7867    0.0000 C   0  0  0  0  0  0  0  0  0  0  0  0
    1.0777    2.8515    0.0000 C   0  0  0  0  0  0  0  0  0  0  0  0
    1.0777    1.3515    0.0000 C   0  0  0  0  0  0  0  0  0  0  0  0
    1.7286    0.0000    0.0000 C   0  0  0  0  0  0  0  0  0  0  0  0
    1.0777   -1.3515    0.0000 C   0  0  0  0  0  0  0  0  0  0  0  0
   -0.3846   -1.6852    0.0000 C   0  0  0  0  0  0  0  0  0  0  0  0
   -1.5574   -0.7500    0.0000 C   0  0  0  0  0  0  0  0  0  0  0  0
   -1.5574    0.7500    0.0000 C   0  0  0  0  0  0  0  0  0  0  0  0
   -0.3846    1.6852    0.0000 C   0  0  0  0  0  0  0  0  0  0  0  0
   -0.7184    3.1476    0.0000 C   0  0  0  0  0  0  0  0  0  0  0  0
    0.3812    4.1679    0.0000 C   0  0  0  0  0  0  0  0  0  0  0  0
    0.0474    5.6303    0.0000 C   0  0  0  0  0  0  0  0  0  0  0  0
    1.1469    6.6505    0.0000 O   0  0  0  0  0  0  0  0  0  0  0  0
  1  2  1  0
  2  3  1  0
  3  4  2  0
  4  5  1  0
  5  6  2  0
  6  7  1  0
  7  8  2  0
  8  9  1  0
  9 10  1  0
 10 11  1  0
 11 12  1  0
 12 13  1  0
 13 14  1  0
 14 15  1  0
 10 16  2  0
 16 17  1  0
 17 18  1  0
 18 19  1  0
 19 20  2  0
  8  3  1  0
 15  4  1  0
 16 15  1  0
M  END
>  <fragInfo>  (1) 
3 4 5 6 7 8 9 10 11 12 13 14 15 16
1 2
17
18
19 20


>  <torsionInfo>  (1) 
2 3 1 0
16 17 0 2
17 18 2 3
18 19 3 4


>  <atomInfo>  (1) 
1  0.07753852C 
2  -0.4961516OA
3  0.12567013A 
4  0.00154937A 
5  -0.0547132A 
6  -0.0614156A 
7  -0.0550001A 
8  -0.0015434A 
9  -0.0027433C 
10 -0.0658495C 
11 -0.0314028C 
12 -0.0495030C 
13 -0.0521064C 
14 -0.0424324C 
15 0.00877623C 
16 -0.0626068C 
17 -0.0244931C 
18 0.00676914C 
19 0.11980997C 
20 -0.3033903OA


$$$$
