
     RDKit          3D

 53 53  0  0  0  0  0  0  0  0999 V2000
   -6.7620   -3.4823    1.1697 C   0  0  0  0  0  0  0  0  0  0  0  0
   -5.5976   -4.2125    1.2487 O   0  0  0  0  0  0  0  0  0  0  0  0
   -4.4499   -3.3653    0.8543 C   0  0  0  0  0  3  0  0  0  0  0  0
   -4.6963   -3.2830   -0.5747 O   0  0  0  0  0  0  0  0  0  0  0  0
   -5.7671   -2.3436   -0.5917 C   0  0  2  0  0  0  0  0  0  0  0  0
   -6.5805   -2.7188   -1.9178 C   0  0  0  0  0  0  0  0  0  0  0  0
   -7.5299   -1.5668   -2.0873 C   0  0  0  0  0  3  0  0  0  0  0  0
   -5.2723   -0.9695   -1.1349 C   0  0  1  0  0  0  0  0  0  0  0  0
   -6.1449    0.0573   -0.4619 C   0  0  0  0  0  3  0  0  0  0  0  0
   -7.3284   -0.5405    0.1830 C   0  0  0  0  0  0  0  0  0  0  0  0
   -8.2382   -1.2159   -0.8421 C   0  0  1  0  0  0  0  0  0  0  0  0
   -9.3747   -0.4213   -1.0808 O   0  0  0  0  0  0  0  0  0  0  0  0
   -3.8637   -0.6384   -1.0717 C   0  0  0  0  0  0  0  0  0  0  0  0
   -3.2234   -0.3617    0.2399 C   0  0  2  0  0  0  0  0  0  0  0  0
   -3.7810    0.9941    1.0360 S   0  0  2  0  0  0  0  0  0  0  0  0
   -3.0711    2.2010   -0.7729 C   0  0  0  0  0  2  0  0  0  0  0  0
   -4.1605    1.8799    1.7605 C   0  0  0  0  0  3  0  0  0  0  0  0
   -5.4605    2.5565    2.2628 C   0  0  0  0  0  0  0  0  0  0  0  0
   -6.5574    2.1553    1.5616 O   0  0  0  0  0  0  0  0  0  0  0  0
   -6.3364    2.6382    0.2536 C   0  0  0  0  0  3  0  0  0  0  0  0
   -6.2521    4.1196    0.2545 C   0  0  1  0  0  0  0  0  0  0  0  0
   -4.9681    4.6084    0.1848 O   0  0  0  0  0  0  0  0  0  0  0  0
   -7.1949    4.7144   -0.7498 C   0  0  0  0  0  3  0  0  0  0  0  0
   -7.8227    5.8025   -0.1414 O   0  0  0  0  0  0  0  0  0  0  0  0
   -7.8810    5.6089    1.2612 C   0  0  0  0  0  2  0  0  0  0  0  0
   -1.8565   -0.4350    0.1485 O   0  0  0  0  0  0  0  0  0  0  0  0
   -1.4574   -1.6237   -0.4183 C   0  0  1  0  0  0  0  0  0  0  0  0
   -0.9548   -1.5843   -1.8045 C   0  0  0  0  0  0  0  0  0  0  0  0
   -1.7600   -1.0975   -2.7830 O   0  0  0  0  0  0  0  0  0  0  0  0
   -0.5598   -2.4253    0.4583 C   0  0  0  0  0  3  0  0  0  0  0  0
   -0.5324   -1.8814    1.7603 O   0  0  0  0  0  0  0  0  0  0  0  0
   -0.0268   -0.6557    1.6573 O   0  0  0  0  0  0  0  0  0  0  0  0
    0.9306   -0.6194    0.7191 C   0  0  0  0  0  3  0  0  0  0  0  0
    1.8394    0.4959    0.7131 O   0  0  0  0  0  0  0  0  0  0  0  0
    3.0119   -0.2494    0.6900 O   0  0  0  0  0  0  0  0  0  0  0  0
    2.7204   -1.2441   -0.3059 C   0  0  2  0  0  0  0  0  0  0  0  0
    3.1567   -2.4516    0.3660 O   0  0  0  0  0  0  0  0  0  0  0  0
    3.9537   -1.1352   -1.3591 C   0  0  0  0  0  3  0  0  0  0  0  0
    4.9645   -0.5518   -0.6149 O   0  0  0  0  0  0  0  0  0  0  0  0
    5.4516   -1.4601    0.3151 C   0  0  2  0  0  0  0  0  0  0  0  0
    6.2155   -0.6719    1.3991 C   0  0  0  0  0  0  0  0  0  0  0  0
    6.6046   -2.2522   -0.3955 C   0  0  0  0  0  3  0  0  0  0  0  0
    7.5551   -1.4877   -0.7574 O   0  0  0  0  0  0  0  0  0  0  0  0
    8.7290   -1.3195   -0.4604 O   0  0  0  0  0  0  0  0  0  0  0  0
    8.8563   -0.4642    0.6653 C   0  0  0  0  0  0  0  0  0  0  0  0
    9.8001    0.6336   -0.0308 C   0  0  2  0  0  0  0  0  0  0  0  0
   11.2290   -0.3153   -0.4632 S   0  0  0  0  0  0  0  0  0  0  0  0
   12.2375    0.4459   -1.6030 O   0  0  0  0  0  0  0  0  0  0  0  0
   13.1098    1.2253   -0.7596 C   0  0  0  0  0  0  0  0  0  0  0  0
   14.4571    0.4662   -0.8018 C   0  0  0  0  0  0  0  0  0  0  0  0
    9.9183    1.6549    1.1224 C   0  0  0  0  0  0  0  0  0  0  0  0
   10.0143    2.9447    0.4341 C   0  0  0  0  0  0  0  0  0  0  0  0
   10.7069    3.8423    0.5177 O   0  0  0  0  0  0  0  0  0  0  0  0
  1  2  1  0
  2  3  1  0
  3  4  1  0
  5  4  1  6
  5  6  1  0
  6  7  1  0
  5  8  1  0
  8  9  1  0
  9 10  1  0
 10 11  1  0
 11 12  1  6
  8 13  1  1
 14 13  1  6
 14 15  1  0
 15 16  1  0
 15 17  1  0
 17 18  1  0
 18 19  1  0
 19 20  1  0
 20 21  1  0
 21 22  1  6
 21 23  1  0
 23 24  1  0
 24 25  1  0
 14 26  1  0
 26 27  1  0
 27 28  1  6
 28 29  1  0
 27 30  1  0
 30 31  1  0
 31 32  1  0
 32 33  1  0
 33 34  1  0
 34 35  1  0
 35 36  1  0
 36 37  1  1
 36 38  1  0
 38 39  1  0
 39 40  1  0
 40 41  1  1
 40 42  1  0
 42 43  1  0
 43 44  1  0
 44 45  1  0
 46 45  1  1
 46 47  1  0
 47 48  1  0
 48 49  1  0
 49 50  1  0
 46 51  1  0
 51 52  1  0
 52 53  2  0
 11  7  1  0
M  RAD  8   3   2   7   2   9   2  16   3  17   2  20   2  23   2  25   3
M  RAD  4  30   2  33   2  38   2  42   2
M  END
>  <fragInfo>  (1) 
5 6 7 8 9 10 11 12
1 2
3
4
13
14
15 16
17
18
19
20
21 22
23
24 25
26
27
28 29
30
31
32
33
34
35
36 37
38
39
40 41
42
43
44
45
46
47
48
49 50
51
52 53


>  <torsionInfo>  (1) 
4 5 3 0
8 13 0 4
2 3 1 2
3 4 2 3
13 14 4 5
14 15 5 6
14 26 5 14
15 17 6 7
17 18 7 8
18 19 8 9
19 20 9 10
20 21 10 11
21 23 11 12
23 24 12 13
26 27 14 15
27 28 15 16
27 30 15 17
30 31 17 18
31 32 18 19
32 33 19 20
33 34 20 21
34 35 21 22
35 36 22 23
36 38 23 24
38 39 24 25
39 40 25 26
40 42 26 27
42 43 27 28
43 44 28 29
44 45 29 30
45 46 30 31
46 47 31 32
46 51 31 35
47 48 32 33
48 49 33 34
51 52 35 36


>  <atomInfo>  (1) 
1  0.03885651C 
2  -0.3513312OA
3  0.20895043C 
4  -0.3443137OA
5  0.06445755C 
6  -0.0206416C 
7  -0.0073848C 
8  -0.0084019C 
9  -0.0302174C 
10 -0.0232300C 
11 0.05754049C 
12 -0.3928164OA
13 -0.0132021C 
14 0.08704826C 
15 -0.2166413S 
16 0.01168067C 
17 0.02493004C 
18 0.05862858C 
19 -0.3714605OA
20 0.11479833C 
21 0.11158294C 
22 -0.3874762OA
23 0.11541337C 
24 -0.3637125OA
25 0.11572110C 
26 -0.3607011OA
27 0.11405786C 
28 0.07220512C 
29 -0.3935651OA
30 0.15328696C 
31 -0.2244899OA
32 -0.1949161OA
33 0.27995937C 
34 -0.1926114OA
35 -0.1986972OA
36 0.21773043C 
37 -0.3635592OA
38 0.14277413C 
39 -0.3639768OA
40 0.08761705C 
41 -0.0358446C 
42 0.15046457C 
43 -0.2275685OA
44 -0.2349765OA
45 0.09672328C 
46 0.06424223C 
47 -0.0027067SA
48 -0.3152115OA
49 0.05852649C 
50 -0.0402864C 
51 0.01956554C 
52 0.12077235C 
53 -0.3033550OA


$$$$
