
     RDKit          3D

 28 29  0  0  0  0  0  0  0  0999 V2000
   -2.3748    1.9400    0.0125 C   0  0  0  0  0  0  0  0  0  0  0  0
   -2.0566    2.8615   -1.1133 C   0  0  2  0  0  0  0  0  0  0  0  0
   -2.2693    2.2912   -2.4729 C   0  0  0  0  0  0  0  0  0  0  0  0
   -0.7623    3.6015   -0.9639 C   0  0  0  0  0  0  0  0  0  0  0  0
    0.4446    2.7989   -1.3305 C   0  0  0  0  0  0  0  0  0  0  0  0
    1.1806    2.3407   -0.0963 C   0  0  0  0  0  0  0  0  0  0  0  0
    2.5795    2.9241   -0.0627 C   0  0  1  0  0  0  0  0  0  0  0  0
    2.7138    3.8580    1.1304 C   0  0  0  0  0  0  0  0  0  0  0  0
    3.5900    1.8241    0.0381 C   0  0  0  0  0  3  0  0  0  0  0  0
    3.0550    0.6251    0.7532 C   0  0  0  0  0  0  0  0  0  0  0  0
    4.2168   -0.2854    1.0888 C   0  0  0  0  0  0  0  0  0  0  0  0
    4.0676   -1.5379    0.2428 C   0  0  0  0  0  0  0  0  0  0  0  0
    4.6269   -2.7498    0.9825 C   0  0  0  0  0  0  0  0  0  0  0  0
    4.8813   -1.3700   -1.0345 C   0  0  0  0  0  0  0  0  0  0  0  0
    2.6473   -1.7800   -0.1259 C   0  0  0  0  0  0  0  0  0  0  0  0
    1.9709   -2.8435    0.2986 C   0  0  0  0  0  0  0  0  0  0  0  0
    0.5690   -3.0655   -0.0760 C   0  0  0  0  0  0  0  0  0  0  0  0
    0.0958   -2.1059   -1.1276 C   0  0  0  0  0  0  0  0  0  0  0  0
   -1.3074   -1.6223   -0.8257 C   0  0  2  0  0  0  0  0  0  0  0  0
   -1.2804   -0.1095   -0.9121 C   0  0  0  0  0  0  0  0  0  0  0  0
   -1.7609   -2.2082    0.8206 S   0  0  0  0  0  0  0  0  0  0  0  0
   -3.4989   -2.7123    0.9013 C   0  0  0  0  0  0  0  0  0  0  0  0
   -4.3506   -1.6285    1.5662 C   0  0  1  0  0  0  0  0  0  0  0  0
   -3.6086   -1.2428    2.8528 C   0  0  0  0  0  0  0  0  0  0  0  0
   -4.2332   -0.5024    0.7212 O   0  0  0  0  0  0  0  0  0  0  0  0
   -2.9680   -0.2016    0.7044 O   0  0  0  0  0  0  0  0  0  0  0  0
   -2.5749    0.5062   -0.4239 C   0  0  1  0  0  0  0  0  0  0  0  0
   -3.5932    0.3943   -1.5480 C   0  0  0  0  0  2  0  0  0  0  0  0
  1  2  1  0
  2  3  1  6
  2  4  1  0
  4  5  1  0
  5  6  1  0
  6  7  1  0
  7  8  1  1
  7  9  1  0
  9 10  1  0
 10 11  1  0
 11 12  1  0
 12 13  1  0
 12 14  1  0
 12 15  1  0
 15 16  2  3
 16 17  1  0
 17 18  1  0
 19 18  1  1
 19 20  1  0
 19 21  1  0
 21 22  1  0
 22 23  1  0
 23 24  1  1
 23 25  1  0
 25 26  1  0
 26 27  1  0
 27 28  1  6
 27  1  1  0
 27 20  1  0
M  RAD  2   9   2  28   3
M  END
>  <fragInfo>  (1) 
1 2 3 4 5 6 7 8 9 10 11 12 13 14 15 16 17 18 19 20 21 22 23 24 25 26 27 28


>  <torsionInfo>  (1) 


>  <atomInfo>  (1) 
1  -0.0177454C 
2  -0.0414053C 
3  -0.0624010C 
4  -0.0505925C 
5  -0.0527863C 
6  -0.0504264C 
7  -0.0411600C 
8  -0.0622342C 
9  -0.0357189C 
10 -0.0491118C 
11 -0.0443575C 
12 -0.0174739C 
13 -0.0564081C 
14 -0.0564081C 
15 -0.0828605C 
16 -0.0879599C 
17 -0.0339971C 
18 -0.0376968C 
19 0.00796737C 
20 -0.0083717C 
21 -0.1556392SA
22 0.02285769C 
23 0.09918577C 
24 -0.0346550C 
25 -0.2322332OA
26 -0.2293824OA
27 0.10842342C 
28 0.00328342C 


$$$$
