
     RDKit          3D

 19 19  0  0  0  0  0  0  0  0999 V2000
   -1.0883    2.0388   -0.5310 C   0  0  0  0  0  0  0  0  0  0  0  0
   -1.7618    1.3819    0.6585 C   0  0  1  0  0  0  0  0  0  0  0  0
   -3.2499    1.3357    0.4639 C   0  0  0  0  0  0  0  0  0  0  0  0
   -3.5915    0.3241   -0.6309 C   0  0  2  0  0  0  0  0  0  0  0  0
   -4.9555    0.3099   -0.8555 O   0  0  0  0  0  0  0  0  0  0  0  0
   -3.1735   -1.0346   -0.1032 C   0  0  2  0  0  0  0  0  0  0  0  0
   -3.6878   -1.2431    1.1929 O   0  0  0  0  0  0  0  0  0  0  0  0
   -1.6406   -1.0147   -0.0602 C   0  0  1  0  0  0  0  0  0  0  0  0
   -1.2353   -0.6844   -1.3613 O   0  0  0  0  0  0  0  0  0  0  0  0
   -1.2271    0.0134    0.9469 C   0  0  1  0  0  0  0  0  0  0  0  0
    0.2620   -0.0051    1.0877 C   0  0  0  0  0  3  0  0  0  0  0  0
    0.8914    0.4729   -0.1793 C   0  0  0  0  0  3  0  0  0  0  0  0
    1.8140   -0.5271   -0.8096 C   0  0  0  0  0  0  0  0  0  0  0  0
    2.9611   -0.9147    0.0781 C   0  0  1  0  0  0  0  0  0  0  0  0
    2.5157   -1.5357    1.3781 C   0  0  0  0  0  1  0  0  0  0  0  0
    3.7183   -1.8686   -0.6016 O   0  0  0  0  0  0  0  0  0  0  0  0
    3.8476    0.2786    0.3088 C   0  0  0  0  0  0  0  0  0  0  0  0
    4.3894    0.7843   -0.9938 C   0  0  0  0  0  3  0  0  0  0  0  0
    5.2117    1.8885   -0.7962 O   0  0  0  0  0  0  0  0  0  0  0  0
  2  1  1  6
  2  3  1  0
  3  4  1  0
  4  5  1  1
  4  6  1  0
  6  7  1  1
  6  8  1  0
  8  9  1  6
  8 10  1  0
 10 11  1  6
 11 12  1  0
 12 13  1  0
 13 14  1  0
 14 15  1  1
 14 16  1  0
 14 17  1  0
 17 18  1  0
 18 19  1  0
 10  2  1  0
M  RAD  4  11   2  12   2  15   2  18   2
M  END
>  <fragInfo>  (1) 
1 2 3 4 5 6 7 8 9 10
11
12
13
14 15 16
17
18 19


>  <torsionInfo>  (1) 
10 11 0 1
11 12 1 2
12 13 2 3
13 14 3 4
14 17 4 5
17 18 5 6


>  <atomInfo>  (1) 
1  -0.0620390C 
2  -0.0360251C 
3  -0.0213872C 
4  0.08269999C 
5  -0.3903173OA
6  0.10597058C 
7  -0.3877077OA
8  0.08576536C 
9  -0.3900146OA
10 -0.0065364C 
11 -0.0290452C 
12 -0.0319335C 
13 -0.0200109C 
14 0.07523472C 
15 0.02848902C 
16 -0.3891227OA
17 0.00524415C 
18 0.08273409C 
19 -0.3903192OA


$$$$
