
     RDKit          3D

  7  6  0  0  0  0  0  0  0  0999 V2000
   -2.5640    0.3660   -1.6226 C   0  0  0  0  0  0  0  0  0  0  0  0
   -1.9221    0.5431   -0.3828 O   0  0  0  0  0  0  0  0  0  0  0  0
   -1.2692   -0.5033    0.2435 C   0  0  0  0  0  0  0  0  0  0  0  0
    0.0461   -0.4112    0.4472 C   0  0  0  0  0  0  0  0  0  0  0  0
    0.8286    0.7454    0.0384 C   0  0  0  0  0  0  0  0  0  0  0  0
    2.1192    0.6999    0.3036 C   0  0  0  0  0  0  0  0  0  0  0  0
    2.7615   -0.4395    0.9727 C   0  0  0  0  0  0  0  0  0  0  0  0
  1  2  1  0
  2  3  1  0
  3  4  2  3
  4  5  1  0
  5  6  2  3
  6  7  1  0
M  END
>  <fragInfo>  (1) 
5 6 7
1 2
3 4


>  <torsionInfo>  (1) 
4 5 2 0
2 3 1 2


>  <atomInfo>  (1) 
1  0.07660055C 
2  -0.5043680OA
3  0.08239849C 
4  -0.0278810C 
5  -0.0635071C 
6  -0.0875494C 
7  -0.0466764C 


$$$$
