
     RDKit          3D

  8  9  0  0  0  0  0  0  0  0999 V2000
   -1.2407   -0.0272    1.0416 C   0  0  0  0  0  0  0  0  0  0  0  0
   -1.5024   -0.8857   -0.1797 O   0  0  0  0  0  0  0  0  0  0  0  0
   -0.1200   -0.9152   -0.1873 C   0  0  0  0  0  0  0  0  0  0  0  0
    1.1443   -1.1329   -0.2414 C   0  0  0  0  0  0  0  0  0  0  0  0
    1.9217    0.0719    0.0707 C   0  0  0  0  0  0  0  0  0  0  0  0
    1.0402    1.0563    0.3104 C   0  0  0  0  0  0  0  0  0  0  0  0
   -0.2647    0.5768    0.1541 C   0  0  2  0  0  0  0  0  0  0  0  0
   -0.9783    1.2559   -0.9683 N   0  0  0  0  0  0  0  0  0  0  0  0
  1  2  1  0
  2  3  1  0
  3  4  2  0
  4  5  1  0
  5  6  2  0
  6  7  1  0
  7  8  1  6
  7  1  1  0
  7  3  1  0
M  END
>  <fragInfo>  (1) 
1 2 3 4 5 6 7 8


>  <torsionInfo>  (1) 


>  <atomInfo>  (1) 
1  0.11668718C 
2  -0.4927238OA
3  0.12337744C 
4  -0.0220672C 
5  -0.0604354C 
6  -0.0535870C 
7  0.12695872C 
8  -0.3127745NA


$$$$
