
     RDKit          3D

 27 27  0  0  0  0  0  0  0  0999 V2000
   -6.9679    1.7332   -0.1779 C   0  0  0  0  0  0  0  0  0  0  0  0
   -5.7464    0.8643   -0.3379 C   0  0  0  0  0  0  0  0  0  0  0  0
   -5.9172    0.0743   -1.6388 C   0  0  0  0  0  0  0  0  0  0  0  0
   -4.5025    1.7523   -0.4534 C   0  0  0  0  0  0  0  0  0  0  0  0
   -3.3292    0.8089   -0.6100 C   0  0  0  0  0  0  0  0  0  0  0  0
   -3.2655   -0.0858    0.6128 C   0  0  0  0  0  0  0  0  0  0  0  0
   -2.0567   -1.0052    0.3748 C   0  0  1  0  0  0  0  0  0  0  0  0
   -2.3675   -1.7550   -0.8996 C   0  0  0  0  0  0  0  0  0  0  0  0
   -0.8705   -0.0960    0.2416 C   0  0  0  0  0  3  0  0  0  0  0  0
    0.4198   -0.7668    0.0047 C   0  0  2  0  0  0  0  0  0  0  0  0
    0.5186   -1.5945   -1.2215 C   0  0  0  0  0  0  0  0  0  0  0  0
    1.5058   -1.0397   -2.2318 C   0  0  2  0  0  0  0  0  0  0  0  0
    2.1397   -2.1934   -2.9802 C   0  0  0  0  0  0  0  0  0  0  0  0
    2.5593   -0.2081   -1.5336 C   0  0  0  0  0  3  0  0  0  0  0  0
    2.6539    1.1812   -2.1049 C   0  0  0  0  0  0  0  0  0  0  0  0
    3.3137    2.0876   -1.0902 C   0  0  2  0  0  0  0  0  0  0  0  0
    4.3361    2.9972   -1.7349 C   0  0  0  0  0  0  0  0  0  0  0  0
    4.0148    1.2909   -0.0314 C   0  0  0  0  0  0  0  0  0  0  0  0
    3.0666    0.5819    0.8805 C   0  0  0  0  0  0  0  0  0  0  0  0
    2.4296    1.4828    1.9085 C   0  0  1  0  0  0  0  0  0  0  0  0
    2.1800    2.8741    1.4048 C   0  0  0  0  0  1  0  0  0  0  0  0
    1.1003    0.8294    2.3027 C   0  0  0  0  0  0  0  0  0  0  0  0
    1.2407   -0.6601    2.2790 C   0  0  0  0  0  0  0  0  0  0  0  0
    1.7571   -1.3173    3.5114 C   0  0  0  0  0  0  0  0  0  0  0  0
    0.9308   -1.3979    1.2295 C   0  0  0  0  0  0  0  0  0  0  0  0
    1.0912   -2.8725    1.2643 C   0  0  0  0  0  0  0  0  0  0  0  0
   -0.2346   -3.5658    1.0317 C   0  0  0  0  0  0  0  0  0  0  0  0
  1  2  1  0
  2  3  1  0
  2  4  1  0
  4  5  1  0
  5  6  1  0
  6  7  1  0
  7  8  1  6
  7  9  1  0
 10  9  1  1
 10 11  1  0
 11 12  1  0
 12 13  1  1
 12 14  1  0
 14 15  1  0
 15 16  1  0
 16 17  1  6
 16 18  1  0
 18 19  1  0
 19 20  1  0
 20 21  1  6
 20 22  1  0
 22 23  1  0
 23 24  1  0
 23 25  2  3
 25 26  1  0
 26 27  1  0
 25 10  1  0
M  RAD  3   9   2  14   2  21   2
M  END
>  <fragInfo>  (1) 
10 11 12 13 14 15 16 17 18 19 20 21 22 23 24 25
1 2 3
4
5
6
7 8
9
26 27


>  <torsionInfo>  (1) 
9 10 6 0
25 26 0 7
2 4 1 2
4 5 2 3
5 6 3 4
6 7 4 5
7 9 5 6


>  <atomInfo>  (1) 
1  -0.0627736C 
2  -0.0471324C 
3  -0.0627736C 
4  -0.0509643C 
5  -0.0527979C 
6  -0.0504046C 
7  -0.0405664C 
8  -0.0622123C 
9  -0.0285824C 
10 -0.0164257C 
11 -0.0435306C 
12 -0.0405700C 
13 -0.0622124C 
14 -0.0354654C 
15 -0.0473238C 
16 -0.0439855C 
17 -0.0624990C 
18 -0.0504041C 
19 -0.0492919C 
20 -0.0302500C 
21 -0.0053360C 
22 -0.0285827C 
23 -0.0735422C 
24 -0.0436439C 
25 -0.0681389C 
26 -0.0343410C 
27 -0.0615982C 


$$$$
