
     RDKit          3D

 57 59  0  0  0  0  0  0  0  0999 V2000
    1.1986   -4.6661   -0.2261 C   0  0  0  0  0  0  0  0  0  0  0  0
    1.0266   -6.0074    0.4900 C   0  0  2  0  0  0  0  0  0  0  0  0
    2.1087   -6.9284   -0.0272 C   0  0  0  0  0  0  0  0  0  0  0  0
   -0.3016   -6.6312    0.1454 C   0  0  0  0  0  0  0  0  0  0  0  0
   -1.4267   -6.1042    0.9911 C   0  0  0  0  0  0  0  0  0  0  0  0
   -1.8795   -4.7380    0.5971 C   0  0  0  0  0  0  0  0  0  0  0  0
   -3.0044   -4.7651   -0.4171 C   0  0  1  0  0  0  0  0  0  0  0  0
   -4.3142   -5.2141    0.2372 C   0  0  0  0  0  0  0  0  0  0  0  0
   -3.1642   -3.4053   -1.0630 C   0  0  0  0  0  3  0  0  0  0  0  0
   -4.3768   -2.7134   -0.5287 C   0  0  0  0  0  0  0  0  0  0  0  0
   -4.8437   -1.5609   -1.3509 C   0  0  0  0  0  0  0  0  0  0  0  0
   -3.8437   -0.4604   -1.4989 C   0  0  1  0  0  0  0  0  0  0  0  0
   -3.3897   -0.4563   -2.9643 C   0  0  0  0  0  0  0  0  0  0  0  0
   -4.3696    0.9016   -1.1916 C   0  0  1  0  0  0  0  0  0  0  0  0
   -5.7768    0.8333   -0.7152 C   0  0  0  0  0  0  0  0  0  0  0  0
   -6.3370    2.1195   -0.2149 C   0  0  1  0  0  0  0  0  0  0  0  0
   -7.4610    2.5624   -1.1122 C   0  0  0  0  0  0  0  0  0  0  0  0
   -6.8914    2.0305    1.1923 C   0  0  0  0  0  0  0  0  0  0  0  0
   -5.8602    1.5561    2.1871 C   0  0  0  0  0  0  0  0  0  0  0  0
   -5.0830    0.4379    1.5267 C   0  0  2  0  0  0  0  0  0  0  0  0
   -5.6773   -0.7993    1.7533 O   0  0  0  0  0  0  0  0  0  0  0  0
   -3.6284    0.4634    1.8447 C   0  0  0  0  0  3  0  0  0  0  0  0
   -2.7475    0.9081    0.7275 C   0  0  1  0  0  0  0  0  0  0  0  0
   -1.6816    1.8295    1.3331 C   0  0  0  0  0  0  0  0  0  0  0  0
   -2.0597   -0.1223    0.1034 O   0  0  0  0  0  0  0  0  0  0  0  0
   -0.6945    0.1302    0.0135 C   0  0  0  0  0  3  0  0  0  0  0  0
   -0.1516   -0.3877   -1.2935 C   0  0  0  0  0  0  0  0  0  0  0  0
   -0.1101   -1.9140   -1.1861 C   0  0  0  0  0  0  0  0  0  0  0  0
    0.4180   -2.2434    0.1966 C   0  0  0  0  0  0  0  0  0  0  0  0
    1.9396   -2.3680    0.0950 C   0  0  1  0  0  0  0  0  0  0  0  0
    2.5397   -1.4124    1.0938 C   0  0  0  0  0  0  0  0  0  0  0  0
    2.2567   -3.8229    0.4454 C   0  0  2  0  0  0  0  0  0  0  0  0
    3.5218   -4.0896   -0.0552 O   0  0  0  0  0  0  0  0  0  0  0  0
    4.5059   -4.0973    0.9252 C   0  0  0  0  0  0  0  0  0  0  0  0
    5.1095   -2.7517    1.1775 C   0  0  0  0  0  0  0  0  0  0  0  0
    5.8890   -2.2419   -0.0157 C   0  0  1  0  0  0  0  0  0  0  0  0
    5.0013   -1.8626   -1.0060 O   0  0  0  0  0  0  0  0  0  0  0  0
    6.7701   -1.0735    0.4253 C   0  0  1  0  0  0  0  0  0  0  0  0
    8.2253   -1.3610    0.1648 C   0  0  0  0  0  0  0  0  0  0  0  0
    6.3683    0.1328   -0.3960 C   0  0  0  0  0  0  0  0  0  0  0  0
    7.4448    1.2096   -0.3134 C   0  0  0  0  0  0  0  0  0  0  0  0
    6.9439    2.3165    0.5915 C   0  0  0  0  0  0  0  0  0  0  0  0
    6.9563    3.6378   -0.1638 C   0  0  0  0  0  0  0  0  0  0  0  0
    5.5506    4.0508   -0.5098 C   0  0  0  0  0  0  0  0  0  0  0  0
    5.3084    5.4838   -0.0797 C   0  0  1  0  0  0  0  0  0  0  0  0
    6.3458    6.4048   -0.6783 C   0  0  0  0  0  0  0  0  0  0  0  0
    3.9067    5.8950   -0.5152 C   0  0  0  0  0  0  0  0  0  0  0  0
    2.9716    4.7104   -0.4195 C   0  0  0  0  0  0  0  0  0  0  0  0
    1.6539    5.1495    0.1898 C   0  0  0  0  0  3  0  0  0  0  0  0
    0.8926    5.9397   -0.8517 C   0  0  0  0  0  0  0  0  0  0  0  0
   -0.5904    5.8049   -0.6256 C   0  0  0  0  0  0  0  0  0  0  0  0
   -0.8802    4.7881    0.2530 O   0  0  0  0  0  0  0  0  0  0  0  0
   -2.0745    4.2645    0.0820 O   0  0  0  0  0  0  0  0  0  0  0  0
   -2.2770    3.7609   -1.1809 C   0  0  0  0  0  0  0  0  0  0  0  0
   -2.3605    2.2721   -1.2493 C   0  0  0  0  0  0  0  0  0  0  0  0
   -3.4542    1.7114   -0.3293 C   0  0  1  0  0  0  0  0  0  0  0  0
   -4.1427    2.8932    0.2858 C   0  0  0  0  0  2  0  0  0  0  0  0
  1  2  1  0
  2  3  1  6
  2  4  1  0
  4  5  1  0
  5  6  1  0
  6  7  1  0
  7  8  1  1
  7  9  1  0
  9 10  1  0
 10 11  1  0
 11 12  1  0
 12 13  1  6
 12 14  1  0
 14 15  1  1
 15 16  1  0
 16 17  1  6
 16 18  1  0
 18 19  1  0
 19 20  1  0
 20 21  1  1
 20 22  1  0
 22 23  1  0
 23 24  1  1
 23 25  1  0
 25 26  1  0
 26 27  1  0
 27 28  1  0
 28 29  1  0
 29 30  1  0
 30 31  1  1
 30 32  1  0
 32 33  1  0
 33 34  1  0
 34 35  1  0
 35 36  1  0
 36 37  1  6
 36 38  1  0
 38 39  1  6
 38 40  1  0
 40 41  1  0
 41 42  1  0
 42 43  1  0
 43 44  1  0
 44 45  1  0
 45 46  1  6
 45 47  1  0
 47 48  1  0
 48 49  1  0
 49 50  1  0
 50 51  1  0
 51 52  1  0
 52 53  1  0
 53 54  1  0
 54 55  1  0
 55 56  1  0
 56 57  1  1
 32  1  1  6
 56 14  1  0
 56 23  1  0
M  RAD  5   9   2  22   2  26   2  49   2  57   3
M  END
>  <fragInfo>  (1) 
1 2 3 4 5 6 7 8 9 10 11 12 13 14 15 16 17 18 19 20 21 22 23 24 25 26 27 28 29 30 31 32 33 34 35 36 37 38 39 40 41 42 43 44 45 46 47 48 49 50 51 52 53 54 55 56 57


>  <torsionInfo>  (1) 


>  <atomInfo>  (1) 
1  -0.0238841C 
2  -0.0418047C 
3  -0.0624140C 
4  -0.0506055C 
5  -0.0527865C 
6  -0.0504264C 
7  -0.0411603C 
8  -0.0622342C 
9  -0.0357403C 
10 -0.0496540C 
11 -0.0501398C 
12 -0.0407650C 
13 -0.0622217C 
14 -0.0297791C 
15 -0.0469470C 
16 -0.0438890C 
17 -0.0624973C 
18 -0.0482294C 
19 -0.0263537C 
20 0.06004523C 
21 -0.3927123OA
22 0.02230591C 
23 0.07788702C 
24 -0.0348190C 
25 -0.3683499OA
26 0.08443707C 
27 -0.0241204C 
28 -0.0503876C 
29 -0.0481409C 
30 -0.0178164C 
31 -0.0600301C 
32 0.06027296C 
33 -0.3778328OA
34 0.04941871C 
35 -0.0031033C 
36 0.05872366C 
37 -0.3927623OA
38 -0.0180142C 
39 -0.0600384C 
40 -0.0482459C 
41 -0.0529568C 
42 -0.0532844C 
43 -0.0530520C 
44 -0.0507110C 
45 -0.0442697C 
46 -0.0625095C 
47 -0.0504357C 
48 -0.0498411C 
49 -0.0361796C 
50 -0.0233049C 
51 0.08246355C 
52 -0.2367301OA
53 -0.2367170OA
54 0.08284736C 
55 -0.0174006C 
56 0.00832745C 
57 -0.0250459C 


$$$$
