
     RDKit          3D

 29 28  0  0  0  0  0  0  0  0999 V2000
    8.2786    2.3671    0.8792 O   0  0  0  0  0  0  0  0  0  0  0  0
    7.2761    2.4821    0.0385 O   0  0  0  0  0  0  0  0  0  0  0  0
    7.1964    1.3649   -0.7943 C   0  0  0  0  0  3  0  0  0  0  0  0
    6.7785    0.3003    0.0030 O   0  0  0  0  0  0  0  0  0  0  0  0
    5.4520    0.0139   -0.2614 C   0  0  2  0  0  0  0  0  0  0  0  0
    5.2084   -1.4583   -0.5246 C   0  0  0  0  0  0  0  0  0  0  0  0
    4.9347    0.8443   -1.4038 C   0  0  0  0  0  3  0  0  0  0  0  0
    4.0065    1.9519   -0.9422 C   0  0  0  0  0  3  0  0  0  0  0  0
    2.5723    1.5853   -1.2670 C   0  0  0  0  0  3  0  0  0  0  0  0
    1.8065    1.5427    0.0291 C   0  0  0  0  0  0  0  0  0  0  0  0
    1.2757    0.1806    0.3636 C   0  0  2  0  0  0  0  0  0  0  0  0
    2.2126   -0.9180    0.0684 C   0  0  0  0  0  0  0  0  0  0  0  0
    2.3232   -1.4781   -1.0029 O   0  0  0  0  0  0  0  0  0  0  0  0
    0.0409   -0.0904   -0.2103 O   0  0  0  0  0  0  0  0  0  0  0  0
   -0.7442   -0.5088    0.7731 O   0  0  0  0  0  0  0  0  0  0  0  0
   -1.6555    0.5284    0.9967 C   0  0  0  0  0  3  0  0  0  0  0  0
   -2.3671    0.8695   -0.1414 O   0  0  0  0  0  0  0  0  0  0  0  0
   -2.6537   -0.2215   -0.9455 C   0  0  2  0  0  0  0  0  0  0  0  0
   -4.0104   -0.1053   -1.6012 C   0  0  0  0  0  0  0  0  0  0  0  0
   -4.3871   -1.3768   -2.0235 O   0  0  0  0  0  0  0  0  0  0  0  0
   -5.6490   -1.5956   -1.7320 O   0  0  0  0  0  0  0  0  0  0  0  0
   -5.9624   -2.9467   -1.6715 C   0  0  0  0  0  2  0  0  0  0  0  0
   -2.5696   -1.4943   -0.1532 C   0  0  0  0  0  3  0  0  0  0  0  0
   -3.7582   -1.8575    0.4498 O   0  0  0  0  0  0  0  0  0  0  0  0
   -4.1412   -0.9957    1.4737 C   0  0  2  0  0  0  0  0  0  0  0  0
   -4.4707   -1.7785    2.5911 O   0  0  0  0  0  0  0  0  0  0  0  0
   -5.4262   -0.3147    1.0233 C   0  0  0  0  0  3  0  0  0  0  0  0
   -5.5849    1.0439    1.6491 C   0  0  0  0  0  0  0  0  0  0  0  0
   -5.9822    2.0651    0.6111 C   0  0  0  0  0  2  0  0  0  0  0  0
  1  2  1  0
  2  3  1  0
  3  4  1  0
  4  5  1  0
  5  6  1  6
  5  7  1  0
  7  8  1  0
  8  9  1  0
  9 10  1  0
 11 10  1  6
 11 12  1  0
 12 13  2  0
 11 14  1  0
 14 15  1  0
 15 16  1  0
 16 17  1  0
 17 18  1  0
 18 19  1  1
 19 20  1  0
 20 21  1  0
 21 22  1  0
 18 23  1  0
 23 24  1  0
 24 25  1  0
 25 26  1  1
 25 27  1  0
 27 28  1  0
 28 29  1  0
M  RAD  8   3   2   7   2   8   2   9   2  16   2  22   3  23   2  27   2
M  RAD  1  29   3
M  END
>  <fragInfo>  (1) 
1 2
3
4
5 6
7
8
9
10
11
12 13
14
15
16
17
18
19
20
21 22
23
24
25 26
27
28 29


>  <torsionInfo>  (1) 
2 3 0 1
3 4 1 2
4 5 2 3
5 7 3 4
7 8 4 5
8 9 5 6
9 10 6 7
10 11 7 8
11 12 8 9
11 14 8 10
14 15 10 11
15 16 11 12
16 17 12 13
17 18 13 14
18 19 14 15
18 23 14 18
19 20 15 16
20 21 16 17
23 24 18 19
24 25 19 20
25 27 20 21
27 28 21 22


>  <atomInfo>  (1) 
1  -0.2489199OA
2  -0.2014109OA
3  0.24539893C 
4  -0.3423609OA
5  0.06162751C 
6  -0.0382516C 
7  -0.0061520C 
8  -0.0290256C 
9  -0.0316600C 
10 -0.0131789C 
11 0.14837737C 
12 0.15160406C 
13 -0.3003300OA
14 -0.2227991OA
15 -0.1979620OA
16 0.24588281C 
17 -0.3369307OA
18 0.11635266C 
19 0.11118571C 
20 -0.2333813OA
21 -0.2272450OA
22 0.15697936C 
23 0.11817409C 
24 -0.3437258OA
25 0.15795588C 
26 -0.3677043OA
27 0.01772886C 
28 -0.0417388C 
29 -0.0347004C 


$$$$
