
     RDKit          3D

 29 29  0  0  0  0  0  0  0  0999 V2000
    4.5827    2.3450    1.9628 C   0  0  0  0  0  0  0  0  0  0  0  0
    5.6951    1.7408    1.1464 C   0  0  0  0  0  0  0  0  0  0  0  0
    6.3622    2.7785    0.2614 C   0  0  0  0  0  0  0  0  0  0  0  0
    5.1534    0.5970    0.3015 C   0  0  0  0  0  0  0  0  0  0  0  0
    4.5843   -0.4213    1.2431 C   0  0  0  0  0  0  0  0  0  0  0  0
    4.0060   -1.6218    0.5450 C   0  0  0  0  0  0  0  0  0  0  0  0
    2.9003   -1.1672   -0.3652 C   0  0  1  0  0  0  0  0  0  0  0  0
    3.3560   -0.1963   -1.4195 C   0  0  0  0  0  0  0  0  0  0  0  0
    2.2921   -2.4282   -0.9871 C   0  0  0  0  0  3  0  0  0  0  0  0
    1.7799   -3.2610    0.1649 C   0  0  0  0  0  0  0  0  0  0  0  0
    0.7430   -2.4572    0.9144 C   0  0  0  0  0  0  0  0  0  0  0  0
   -0.3729   -2.1249   -0.0174 C   0  0  1  0  0  0  0  0  0  0  0  0
   -1.4632   -1.3292    0.6067 C   0  0  1  0  0  0  0  0  0  0  0  0
   -1.4572    0.1314    0.2971 C   0  0  0  0  0  3  0  0  0  0  0  0
   -2.5734    0.8458    0.9664 C   0  0  0  0  0  0  0  0  0  0  0  0
   -2.6629    2.2997    0.7477 C   0  0  1  0  0  0  0  0  0  0  0  0
   -2.8316    2.7907   -0.6356 C   0  0  1  0  0  0  0  0  0  0  0  0
   -1.7379    2.4279   -1.5911 C   0  0  0  0  0  0  0  0  0  0  0  0
   -4.2088    2.5453   -1.2080 C   0  0  0  0  0  0  0  0  0  0  0  0
   -5.1656    3.1755   -0.4458 O   0  0  0  0  0  0  0  0  0  0  0  0
   -3.5480    3.0380    1.6886 C   0  0  0  0  0  0  0  0  0  0  0  0
   -3.4995    4.5200    1.2929 C   0  0  0  0  0  0  0  0  0  0  0  0
    0.0473   -1.6666   -1.3736 C   0  0  1  0  0  0  0  0  0  0  0  0
   -0.1138   -2.7196   -2.3054 O   0  0  0  0  0  0  0  0  0  0  0  0
   -0.8304   -0.6702   -1.7935 O   0  0  0  0  0  0  0  0  0  0  0  0
   -2.3414   -1.3099   -2.2713 S   0  0  0  0  0  0  0  0  0  0  0  0
   -3.0513   -2.4071   -1.0343 C   0  0  0  0  0  0  0  0  0  0  0  0
   -2.7776   -1.9906    0.3686 C   0  0  1  0  0  0  0  0  0  0  0  0
   -2.8666   -3.4645    1.4266 S   0  0  0  0  0  0  0  0  0  0  0  0
  1  2  1  0
  2  3  1  0
  2  4  1  0
  4  5  1  0
  5  6  1  0
  6  7  1  0
  7  8  1  6
  7  9  1  0
  9 10  1  0
 10 11  1  0
 12 11  1  1
 12 13  1  0
 13 14  1  6
 14 15  1  0
 16 15  1  6
 16 17  1  0
 17 18  1  6
 17 19  1  0
 19 20  1  0
 16 21  1  0
 21 22  1  0
 12 23  1  0
 23 24  1  6
 23 25  1  0
 25 26  1  0
 26 27  1  0
 27 28  1  0
 28 29  1  1
 28 13  1  0
M  RAD  2   9   2  14   2
M  END
>  <fragInfo>  (1) 
12 13 23 24 25 26 27 28 29
1 2 3
4
5
6
7 8
9
10
11
14
15
16
17 18
19 20
21 22


>  <torsionInfo>  (1) 
11 12 8 0
13 14 0 9
2 4 1 2
4 5 2 3
5 6 3 4
6 7 4 5
7 9 5 6
9 10 6 7
10 11 7 8
14 15 9 10
15 16 10 11
16 17 11 12
16 21 11 14
17 19 12 13


>  <atomInfo>  (1) 
1  -0.0627736C 
2  -0.0471324C 
3  -0.0627736C 
4  -0.0509643C 
5  -0.0527983C 
6  -0.0504266C 
7  -0.0411603C 
8  -0.0622342C 
9  -0.0357368C 
10 -0.0494554C 
11 -0.0449656C 
12 0.01498938C 
13 -0.0180002C 
14 -0.0336055C 
15 -0.0466663C 
16 -0.0366413C 
17 -0.0181204C 
18 -0.0600503C 
19 0.04587731C 
20 -0.3960881OA
21 -0.0529624C 
22 -0.0651065C 
23 0.17027896C 
24 -0.3668082OA
25 -0.2840153OA
26 -0.0043371SA
27 0.03184918C 
28 0.01653151C 
29 -0.1746629SA


$$$$
