
     RDKit          3D

 21 20  0  0  0  0  0  0  0  0999 V2000
   -4.4908    0.2061    3.3557 C   0  0  0  0  0  0  0  0  0  0  0  0
   -4.6433   -0.0955    1.9129 C   0  0  0  0  0  0  0  0  0  0  0  0
   -6.0109   -0.5976    1.6288 C   0  0  0  0  0  0  0  0  0  0  0  0
   -4.4373    1.2427    1.1560 C   0  0  0  0  0  0  0  0  0  0  0  0
   -4.5655    0.7947   -0.3871 C   0  0  0  0  0  0  0  0  0  0  0  0
   -3.5598   -0.2113   -0.7721 C   0  0  0  0  0  0  0  0  0  0  0  0
   -2.1471    0.2624   -0.6661 C   0  0  1  0  0  0  0  0  0  0  0  0
   -1.8507    0.7782    0.8296 C   0  0  0  0  0  0  0  0  0  0  0  0
   -1.2396   -1.0312   -0.7477 C   0  0  2  0  0  0  0  0  0  0  0  0
   -1.5431   -1.8883    0.4760 C   0  0  0  0  0  2  0  0  0  0  0  0
    0.1989   -0.8208   -1.0381 C   0  0  0  0  0  3  0  0  0  0  0  0
    0.2711   -0.1673   -2.4508 C   0  0  0  0  0  2  0  0  0  0  0  0
    0.9283   -0.0063   -0.0184 C   0  0  0  0  0  0  0  0  0  0  0  0
    2.4260   -0.1467   -0.2718 C   0  0  1  0  0  0  0  0  0  0  0  0
    2.8440   -1.6657    0.0121 C   0  0  0  0  0  0  0  0  0  0  0  0
    2.6359   -0.0778   -1.8585 C   0  0  0  0  0  0  0  0  0  0  0  0
    4.1619   -0.2862   -1.8823 C   0  0  0  0  0  0  0  0  0  0  0  0
    4.7787    0.8919   -1.3508 O   0  0  0  0  0  0  0  0  0  0  0  0
    4.6029    1.0242   -0.1321 O   0  0  0  0  0  0  0  0  0  0  0  0
    5.2283    0.8976    1.0480 C   0  0  0  0  0  0  0  0  0  0  0  0
    6.4123    0.4451    1.1569 O   0  0  0  0  0  0  0  0  0  0  0  0
  1  2  1  0
  2  3  1  0
  2  4  1  0
  4  5  1  0
  5  6  1  0
  6  7  1  0
  7  8  1  1
  7  9  1  0
  9 10  1  1
  9 11  1  0
 11 12  1  0
 11 13  1  0
 13 14  1  0
 14 15  1  6
 14 16  1  0
 16 17  1  0
 17 18  1  0
 18 19  1  0
 19 20  1  0
 20 21  2  0
M  RAD  3  10   3  11   2  12   3
M  END
>  <fragInfo>  (1) 
1 2 3
4
5
6
7 8
9 10
11 12
13
14 15
16
17
18
19
20 21


>  <torsionInfo>  (1) 
2 4 0 1
4 5 1 2
5 6 2 3
6 7 3 4
7 9 4 5
9 11 5 6
11 13 6 7
13 14 7 8
14 16 8 9
16 17 9 10
17 18 10 11
18 19 11 12
19 20 12 13


>  <atomInfo>  (1) 
1  -0.0627736C 
2  -0.0471324C 
3  -0.0627736C 
4  -0.0509643C 
5  -0.0527979C 
6  -0.0504053C 
7  -0.0405872C 
8  -0.0622129C 
9  -0.0289072C 
10 -0.0309213C 
11 -0.0164730C 
12 -0.0275008C 
13 -0.0437890C 
14 -0.0413623C 
15 -0.0624012C 
16 -0.0227743C 
17 0.09427402C 
18 -0.1854892OA
19 -0.3017899OA
20 0.33027420C 
21 -0.2524961OA


$$$$
