
     RDKit          3D

 21 23  0  0  0  0  0  0  0  0999 V2000
    2.5575    1.2031    1.3194 C   0  0  0  0  0  0  0  0  0  0  0  0
    2.3446    1.7516   -0.0627 C   0  0  2  0  0  0  0  0  0  0  0  0
    1.4586    2.9667   -0.0869 C   0  0  0  0  0  0  0  0  0  0  0  0
    0.0600    2.6715    0.4268 C   0  0  2  0  0  0  0  0  0  0  0  0
    0.1167    1.7740    1.6307 C   0  0  0  0  0  0  0  0  0  0  0  0
   -0.3613    0.8171    0.8938 C   0  0  0  0  0  0  0  0  0  0  0  0
   -0.6201   -0.5806    1.2522 C   0  0  0  0  0  0  0  0  0  0  0  0
   -0.5541    1.5603   -0.3757 C   0  0  1  0  0  0  0  0  0  0  0  0
   -2.0203    1.6538   -0.6394 C   0  0  0  0  0  3  0  0  0  0  0  0
    1.9370    0.7030   -1.0562 C   0  0  0  0  0  0  0  0  0  0  0  0
    2.9361   -0.4327   -0.9719 C   0  0  0  0  0  0  0  0  0  0  0  0
    3.0309   -0.9479    0.4167 C   0  0  0  0  0  0  0  0  0  0  0  0
    2.1906   -1.8646    0.8852 C   0  0  0  0  0  0  0  0  0  0  0  0
    1.1317   -2.3772   -0.0217 C   0  0  0  0  0  3  0  0  0  0  0  0
    0.1595   -3.0983    0.6670 O   0  0  0  0  0  0  0  0  0  0  0  0
   -1.0951   -2.7781    0.1395 C   0  0  0  0  0  3  0  0  0  0  0  0
   -1.1919   -1.2902    0.0641 C   0  0  1  0  0  0  0  0  0  0  0  0
   -2.5470   -0.7830   -0.3350 C   0  0  2  0  0  0  0  0  0  0  0  0
   -3.3164   -1.8976   -1.0163 C   0  0  0  0  0  2  0  0  0  0  0  0
   -2.4730    0.3727   -1.3063 C   0  0  1  0  0  0  0  0  0  0  0  0
   -3.7437    0.5764   -1.8231 O   0  0  0  0  0  0  0  0  0  0  0  0
  2  1  1  1
  2  3  1  0
  4  3  1  6
  4  5  1  0
  5  6  2  0
  6  7  1  0
  6  8  1  0
  8  9  1  1
  2 10  1  0
 10 11  1  0
 11 12  1  0
 12 13  2  3
 13 14  1  0
 14 15  1  0
 15 16  1  0
 17 16  1  1
 17 18  1  0
 18 19  1  6
 18 20  1  0
 20 21  1  1
  8  4  1  0
 17  7  1  0
 20  9  1  0
M  RAD  4   9   2  14   2  16   2  19   3
M  END
>  <fragInfo>  (1) 
1 2 3 4 5 6 7 8 9 10 11 12 13 14 15 16 17 18 19 20 21


>  <torsionInfo>  (1) 


>  <atomInfo>  (1) 
1  -0.0624770C 
2  -0.0434038C 
3  -0.0437609C 
4  -0.0158755C 
5  -0.0812678C 
6  -0.0694366C 
7  -0.0259056C 
8  -0.0082906C 
9  -0.0019369C 
10 -0.0472080C 
11 -0.0347220C 
12 -0.0858565C 
13 -0.0569735C 
14 0.10584361C 
15 -0.3648316OA
16 0.08839116C 
17 -0.0030498C 
18 -0.0058301C 
19 -0.0287306C 
20 0.06124377C 
21 -0.3924918OA


$$$$
