
     RDKit          3D

 29 30  0  0  0  0  0  0  0  0999 V2000
    6.3241    3.2341    0.2956 O   0  0  0  0  0  0  0  0  0  0  0  0
    5.4313    3.8920   -0.2857 C   0  0  0  0  0  0  0  0  0  0  0  0
    5.5678    5.2598   -0.4429 O   0  0  0  0  0  0  0  0  0  0  0  0
    4.2147    3.2375   -0.8180 C   0  0  0  0  0  0  0  0  0  0  0  0
    4.2138    1.7540   -0.5699 C   0  0  0  0  0  0  0  0  0  0  0  0
    4.2750    1.4276    0.9074 C   0  0  0  0  0  0  0  0  0  0  0  0
    4.2693   -0.0706    1.0468 C   0  0  0  0  0  0  0  0  0  0  0  0
    2.9985   -0.6237    0.4348 C   0  0  0  0  0  0  0  0  0  0  0  0
    2.9402   -2.1236    0.5469 C   0  0  0  0  0  0  0  0  0  0  0  0
    1.6457   -2.5908   -0.0857 C   0  0  2  0  0  0  0  0  0  0  0  0
    0.5123   -1.9297    0.6896 C   0  0  1  0  0  0  0  0  0  0  0  0
   -0.7725   -2.2427   -0.0868 C   0  0  0  0  0  0  0  0  0  0  0  0
   -1.8950   -1.5830    0.6888 C   0  0  0  0  0  0  0  0  0  0  0  0
   -3.2352   -1.8231    0.0136 C   0  0  1  0  0  0  0  0  0  0  0  0
   -4.2129   -1.2102    0.7486 O   0  0  0  0  0  0  0  0  0  0  0  0
   -3.1595   -1.3181   -1.3696 C   0  0  0  0  0  0  0  0  0  0  0  0
   -2.8666   -0.0050   -1.4936 O   0  0  0  0  0  0  0  0  0  0  0  0
   -3.5783    1.0780   -1.0753 C   0  0  0  0  0  0  0  0  0  0  0  0
   -3.0727    2.3830   -1.2977 C   0  0  0  0  0  0  0  0  0  0  0  0
   -3.7838    3.4808   -0.8827 C   0  0  0  0  0  0  0  0  0  0  0  0
   -5.0005    3.3575   -0.2423 C   0  0  0  0  0  0  0  0  0  0  0  0
   -5.5169    2.0942   -0.0127 C   0  0  0  0  0  0  0  0  0  0  0  0
   -7.0551    1.8551    0.7940 Cl  0  0  0  0  0  0  0  0  0  0  0  0
   -4.7789    1.0255   -0.4410 C   0  0  0  0  0  0  0  0  0  0  0  0
    0.4596   -2.8467    1.9181 C   0  0  2  0  0  0  0  0  0  0  0  0
    1.6226   -2.7569    2.6626 O   0  0  0  0  0  0  0  0  0  0  0  0
    0.4094   -4.2019    1.2423 C   0  0  0  0  0  0  0  0  0  0  0  0
    1.4353   -4.0765    0.1605 C   0  0  2  0  0  0  0  0  0  0  0  0
    2.6082   -4.6765    0.5692 O   0  0  0  0  0  0  0  0  0  0  0  0
  1  2  2  0
  2  3  1  0
  2  4  1  0
  4  5  1  0
  5  6  1  0
  6  7  1  0
  7  8  1  0
  8  9  1  0
 10  9  1  1
 10 11  1  0
 11 12  1  6
 12 13  1  0
 13 14  1  0
 14 15  1  1
 14 16  1  0
 16 17  1  0
 17 18  1  0
 18 19  2  0
 19 20  1  0
 20 21  2  0
 21 22  1  0
 22 23  1  0
 22 24  2  0
 11 25  1  0
 25 26  1  1
 25 27  1  0
 27 28  1  0
 28 29  1  1
 28 10  1  0
 24 18  1  0
M  END
>  <fragInfo>  (1) 
10 11 25 26 27 28 29
1 2 3
4
5
6
7
8
9
12
13
14 15
16
17
18 19 20 21 22 23 24


>  <torsionInfo>  (1) 
9 10 7 0
11 12 0 8
2 4 1 2
4 5 2 3
5 6 3 4
6 7 4 5
7 8 5 6
8 9 6 7
12 13 8 9
13 14 9 10
14 16 10 11
16 17 11 12
17 18 12 13


>  <atomInfo>  (1) 
1  -0.2524858OA
2  0.30283955C 
3  -0.4812303OA
4  0.04532375C 
5  -0.0427890C 
6  -0.0527479C 
7  -0.0532786C 
8  -0.0529345C 
9  -0.0476162C 
10 -0.0098632C 
11 -0.0097677C 
12 -0.0450260C 
13 -0.0232673C 
14 0.08801423C 
15 -0.3895802OA
16 0.11407138C 
17 -0.4908480OA
18 0.12042177A 
19 -0.0198579A 
20 -0.0571044A 
21 -0.0432550A 
22 0.04423239A 
23 -0.0842006Cl
24 -0.0012690A 
25 0.05962720C 
26 -0.3927270OA
27 -0.0002232C 
28 0.05962554C 
29 -0.3927271OA


$$$$
