
     RDKit          3D

 23 22  0  0  0  0  0  0  0  0999 V2000
    7.1420    2.0127    1.0301 O   0  0  0  0  0  0  0  0  0  0  0  0
    6.5030    1.7296   -0.0146 C   0  0  0  0  0  0  0  0  0  0  0  0
    6.9283    2.1436   -1.2482 O   0  0  0  0  0  0  0  0  0  0  0  0
    5.2653    0.9277    0.1358 C   0  0  0  0  0  0  0  0  0  0  0  0
    5.6405   -0.5158    0.3928 C   0  0  0  0  0  0  0  0  0  0  0  0
    4.4086   -1.3516    0.5534 C   0  0  0  0  0  0  0  0  0  0  0  0
    3.2366   -0.7499    0.4496 C   0  0  0  0  0  0  0  0  0  0  0  0
    1.9864   -1.4841    0.5933 C   0  0  0  0  0  0  0  0  0  0  0  0
    2.0733   -3.5419    0.9806 I   0  0  0  0  0  0  0  0  0  0  0  0
    0.8145   -0.9176    0.4963 C   0  0  0  0  0  0  0  0  0  0  0  0
    0.7544    0.4514    0.2443 O   0  0  0  0  0  0  0  0  0  0  0  0
    0.2224    0.8344   -0.9991 C   0  0  0  0  0  0  0  0  0  0  0  0
   -0.4181   -1.7114    0.6506 C   0  0  0  0  0  0  0  0  0  0  0  0
   -1.2559   -1.5860   -0.5973 C   0  0  0  0  0  0  0  0  0  0  0  0
   -2.4519   -1.0569   -0.4015 C   0  0  0  0  0  0  0  0  0  0  0  0
   -3.3457   -0.8857   -1.5254 C   0  0  0  0  0  0  0  0  0  0  0  0
   -4.5504   -0.3564   -1.3581 C   0  0  0  0  0  0  0  0  0  0  0  0
   -5.3874   -0.1987   -2.4288 O   0  0  0  0  0  1  0  0  0  0  0  0
   -4.9521    0.0521    0.0043 C   0  0  2  0  0  0  0  0  0  0  0  0
   -6.1872   -0.7114    0.3879 C   0  0  0  0  0  0  0  0  0  0  0  0
   -5.1357    1.4322    0.0068 O   0  0  0  0  0  0  0  0  0  0  0  0
   -5.5104    1.7899    1.2966 C   0  0  0  0  0  0  0  0  0  0  0  0
   -5.7807    3.6937    1.3508 Br  0  0  0  0  0  0  0  0  0  0  0  0
  1  2  2  0
  2  3  1  0
  2  4  1  0
  4  5  1  0
  5  6  1  0
  6  7  2  3
  7  8  1  0
  8  9  1  0
  8 10  2  3
 10 11  1  0
 11 12  1  0
 10 13  1  0
 13 14  1  0
 14 15  2  3
 15 16  1  0
 16 17  2  3
 17 18  1  0
 17 19  1  0
 19 20  1  6
 19 21  1  0
 21 22  1  0
 22 23  1  0
M  CHG  1  18  -1
M  END
>  <fragInfo>  (1) 
1 2 3
4
5
6 7
8 9 10
11 12
13
14 15
16 17 18
19 20
21
22 23


>  <torsionInfo>  (1) 
2 4 0 1
4 5 1 2
5 6 2 3
7 8 3 4
10 11 4 5
10 13 4 6
13 14 6 7
15 16 7 8
17 19 8 9
19 21 9 10
21 22 10 11


>  <atomInfo>  (1) 
1  -0.2524726OA
2  0.30315514C 
3  -0.4812221OA
4  0.04878145C 
5  -0.0242116C 
6  -0.0827838C 
7  -0.0494169C 
8  0.05073182C 
9  -0.0406383I 
10 0.11254644C 
11 -0.4996723OA
12 0.07708602C 
13 0.02441402C 
14 -0.0770223C 
15 -0.0666557C 
16 -0.0720066C 
17 -0.1036113C 
18 -0.8737075OA
19 0.06686969C 
20 -0.0355615C 
21 -0.3638630OA
22 0.10226566C 
23 -0.0615004Br


$$$$
