
     RDKit          3D

 27 28  0  0  0  0  0  0  0  0999 V2000
   -3.0157    0.6668   -2.2039 C   0  0  0  0  0  0  0  0  0  0  0  0
   -2.8872    1.6804   -1.0723 C   0  0  0  0  0  0  0  0  0  0  0  0
   -4.2047    1.8581   -0.3473 C   0  0  0  0  0  0  0  0  0  0  0  0
   -1.8180    1.1587   -0.1450 C   0  0  1  0  0  0  0  0  0  0  0  0
   -1.6058    2.1035    1.0326 C   0  0  0  0  0  0  0  0  0  0  0  0
   -0.5293    3.1028    0.7611 C   0  0  0  0  0  0  0  0  0  0  0  0
    0.6431    2.5303   -0.0016 C   0  0  1  0  0  0  0  0  0  0  0  0
    1.1717    3.5403   -0.9983 C   0  0  0  0  0  0  0  0  0  0  0  0
    1.7554    2.0951    0.9378 C   0  0  0  0  0  3  0  0  0  0  0  0
    2.8393    1.4867    0.1094 C   0  0  0  0  0  0  0  0  0  0  0  0
    3.1531    0.0669    0.4499 C   0  0  2  0  0  0  0  0  0  0  0  0
    3.2213   -0.8597   -0.7045 C   0  0  2  0  0  0  0  0  0  0  0  0
    4.5102   -0.5736   -1.4747 C   0  0  0  0  0  0  0  0  0  0  0  0
    2.0874   -0.7368   -1.6713 C   0  0  0  0  0  0  0  0  0  0  0  0
    1.1052   -1.8959   -1.5137 C   0  0  2  0  0  0  0  0  0  0  0  0
    1.3931   -2.9730   -2.5529 C   0  0  0  0  0  0  0  0  0  0  0  0
   -0.2925   -1.3614   -1.7703 C   0  0  0  0  0  0  0  0  0  0  0  0
   -1.2232   -2.0530   -0.8210 C   0  0  0  0  0  0  0  0  0  0  0  0
   -2.4528   -1.2345   -0.5516 C   0  0  1  0  0  0  0  0  0  0  0  0
   -3.4681   -2.1224   -0.1711 O   0  0  0  0  0  0  0  0  0  0  0  0
   -2.2348   -0.1803    0.4758 C   0  0  0  0  0  3  0  0  0  0  0  0
   -1.2114   -0.5023    1.5061 C   0  0  0  0  0  0  0  0  0  0  0  0
   -1.2588   -1.8941    2.0326 C   0  0  0  0  0  3  0  0  0  0  0  0
   -0.0554   -2.1258    2.7236 O   0  0  0  0  0  0  0  0  0  0  0  0
    0.6728   -0.9464    2.8703 C   0  0  0  0  0  3  0  0  0  0  0  0
    1.1668   -0.4161    1.5333 C   0  0  0  0  0  0  0  0  0  0  0  0
    2.5384   -0.4144    1.5668 O   0  0  0  0  0  0  0  0  0  0  0  0
  1  2  1  0
  2  3  1  0
  4  2  1  6
  4  5  1  0
  5  6  1  0
  6  7  1  0
  7  8  1  6
  7  9  1  0
  9 10  1  0
 11 10  1  6
 11 12  1  0
 12 13  1  6
 12 14  1  0
 14 15  1  0
 15 16  1  6
 15 17  1  0
 17 18  1  0
 18 19  1  0
 19 20  1  1
 19 21  1  0
 21 22  1  0
 22 23  1  0
 23 24  1  0
 24 25  1  0
 25 26  1  0
 26 27  1  0
 21  4  1  0
 27 11  1  0
M  RAD  4   9   2  21   2  23   2  25   2
M  END
>  <fragInfo>  (1) 
4 5 6 7 8 9 10 11 12 13 14 15 16 17 18 19 20 21 22 23 24 25 26 27
1 2 3


>  <torsionInfo>  (1) 
2 4 1 0


>  <atomInfo>  (1) 
1  -0.0624862C 
2  -0.0436357C 
3  -0.0624862C 
4  -0.0302082C 
5  -0.0492875C 
6  -0.0501385C 
7  -0.0410526C 
8  -0.0622324C 
9  -0.0331804C 
10 -0.0230879C 
11 0.06044758C 
12 -0.0175621C 
13 -0.0600200C 
14 -0.0456424C 
15 -0.0438360C 
16 -0.0624964C 
17 -0.0482193C 
18 -0.0261684C 
19 0.06062350C 
20 -0.3925145OA
21 0.01038387C 
22 -0.0150598C 
23 0.08495364C 
24 -0.3670526OA
25 0.10969737C 
26 0.07590265C 
27 -0.3751303OA


$$$$
