
     RDKit          3D

 29 29  0  0  0  0  0  0  0  0999 V2000
    3.8037    0.9263    1.1187 C   0  0  0  0  0  0  0  0  0  0  0  0
    4.6441   -0.1733    0.5157 C   0  0  2  0  0  0  0  0  0  0  0  0
    5.9594    0.3263   -0.0153 C   0  0  0  0  0  0  0  0  0  0  0  0
    3.8799   -1.0013   -0.4830 C   0  0  0  0  0  0  0  0  0  0  0  0
    3.7908   -2.4050    0.0526 C   0  0  0  0  0  0  0  0  0  0  0  0
    2.3731   -2.6182    0.5390 C   0  0  0  0  0  0  0  0  0  0  0  0
    1.9099   -3.9777    0.0294 C   0  0  1  0  0  0  0  0  0  0  0  0
    2.9872   -4.9695    0.4032 C   0  0  0  0  0  0  0  0  0  0  0  0
    0.6139   -4.3332    0.7327 C   0  0  0  0  0  3  0  0  0  0  0  0
   -0.4784   -3.4846    0.1152 C   0  0  0  0  0  0  0  0  0  0  0  0
   -1.7937   -4.2105    0.1650 C   0  0  0  0  0  0  0  0  0  0  0  0
   -2.9146   -3.2611    0.4961 C   0  0  2  0  0  0  0  0  0  0  0  0
   -4.0897   -3.5082   -0.4238 C   0  0  0  0  0  0  0  0  0  0  0  0
   -2.4868   -1.8154    0.4580 C   0  0  0  0  0  3  0  0  0  0  0  0
   -2.9061   -1.1178   -0.8101 C   0  0  0  0  0  0  0  0  0  0  0  0
   -3.9788   -0.0936   -0.6002 C   0  0  1  0  0  0  0  0  0  0  0  0
   -4.6502   -0.1872    0.7342 C   0  0  0  0  0  2  0  0  0  0  0  0
   -3.5802    1.2918   -0.9866 C   0  0  1  0  0  0  0  0  0  0  0  0
   -4.6469    2.2600   -0.5675 C   0  0  0  0  0  0  0  0  0  0  0  0
   -2.2109    1.6878   -0.5158 C   0  0  0  0  0  0  0  0  0  0  0  0
   -2.3027    2.8659    0.4187 C   0  0  0  0  0  3  0  0  0  0  0  0
   -3.1223    2.4987    1.4852 O   0  0  0  0  0  0  0  0  0  0  0  0
   -0.9088    3.1853    0.9418 C   0  0  0  0  0  0  0  0  0  0  0  0
   -0.3063    4.3491    0.1850 C   0  0  0  0  0  0  0  0  0  0  0  0
    1.1777    4.3605    0.4416 C   0  0  2  0  0  0  0  0  0  0  0  0
    1.6934    5.7700    0.2967 C   0  0  0  0  0  0  0  0  0  0  0  0
    1.8297    3.4153   -0.5429 C   0  0  0  0  0  0  0  0  0  0  0  0
    2.9583    2.7994   -0.0218 O   0  0  0  0  0  0  0  0  0  0  0  0
    2.7549    1.4203    0.1297 C   0  0  0  0  0  3  0  0  0  0  0  0
  1  2  1  0
  2  3  1  6
  2  4  1  0
  4  5  1  0
  5  6  1  0
  6  7  1  0
  7  8  1  1
  7  9  1  0
  9 10  1  0
 10 11  1  0
 11 12  1  0
 12 13  1  6
 12 14  1  0
 14 15  1  0
 15 16  1  0
 16 17  1  1
 16 18  1  0
 18 19  1  1
 18 20  1  0
 20 21  1  0
 21 22  1  0
 21 23  1  0
 23 24  1  0
 24 25  1  0
 25 26  1  6
 25 27  1  0
 27 28  1  0
 28 29  1  0
 29  1  1  0
M  RAD  5   9   2  14   2  17   3  21   2  29   2
M  END
>  <fragInfo>  (1) 
1 2 3 4 5 6 7 8 9 10 11 12 13 14 15 16 17 18 19 20 21 22 23 24 25 26 27 28 29


>  <torsionInfo>  (1) 


>  <atomInfo>  (1) 
1  -0.0215778C 
2  -0.0417146C 
3  -0.0624125C 
4  -0.0506039C 
5  -0.0527865C 
6  -0.0504264C 
7  -0.0411603C 
8  -0.0622342C 
9  -0.0357403C 
10 -0.0496542C 
11 -0.0501520C 
12 -0.0411395C 
13 -0.0622339C 
14 -0.0354559C 
15 -0.0465185C 
16 -0.0350421C 
17 -0.0315134C 
18 -0.0382952C 
19 -0.0621256C 
20 -0.0184382C 
21 0.09357772C 
22 -0.3868779OA
23 -0.0209489C 
24 -0.0456668C 
25 -0.0205591C 
26 -0.0603056C 
27 0.04962735C 
28 -0.3752344OA
29 0.08389616C 


$$$$
