
     RDKit          3D

  9  9  0  0  0  0  0  0  0  0999 V2000
   -1.5135   -0.0424    0.6953 O   0  0  0  0  0  0  0  0  0  0  0  0
   -1.4505   -1.2023    0.0988 O   0  0  0  0  0  0  0  0  0  0  0  0
   -0.1361   -1.4054   -0.2991 C   0  0  0  0  0  3  0  0  0  0  0  0
    0.2960   -0.4878   -1.2341 O   0  0  0  0  0  0  0  0  0  0  0  0
    0.8419    0.6544   -0.6819 C   0  0  2  0  0  0  0  0  0  0  0  0
    1.9827    0.3825    0.2569 C   0  0  0  0  0  0  0  0  0  0  0  0
    1.6360   -0.4067    1.3369 O   0  0  0  0  0  0  0  0  0  0  0  0
   -0.2000    1.5377   -0.0330 C   0  0  0  0  0  3  0  0  0  0  0  0
   -1.4567    0.9700   -0.1396 O   0  0  0  0  0  0  0  0  0  0  0  0
  1  2  1  0
  2  3  1  0
  3  4  1  0
  4  5  1  0
  5  6  1  1
  6  7  1  0
  5  8  1  0
  8  9  1  0
  9  1  1  0
M  RAD  2   3   2   8   2
M  END
>  <fragInfo>  (1) 
1 2 3 4 5 8 9
6 7


>  <torsionInfo>  (1) 
5 6 0 1


>  <atomInfo>  (1) 
1  -0.0646822OA
2  -0.1681433OA
3  0.24915191C 
4  -0.3368487OA
5  0.11624125C 
6  0.07227948C 
7  -0.3935639OA
8  0.15647648C 
9  -0.1968451OA


$$$$
