
     RDKit          3D

 26 28  0  0  0  0  0  0  0  0999 V2000
    5.3366   -0.0177   -1.4761 C   0  0  0  0  0  0  0  0  0  0  0  0
    4.8684    1.1356   -0.6136 C   0  0  0  0  0  0  0  0  0  0  0  0
    4.1184    2.1730   -1.3956 C   0  0  0  0  0  0  0  0  0  0  0  0
    4.0915    0.6612    0.5846 C   0  0  0  0  0  0  0  0  0  0  0  0
    2.8685   -0.1125    0.2084 C   0  0  0  0  0  0  0  0  0  0  0  0
    1.9018    0.7160   -0.6322 C   0  0  0  0  0  0  0  0  0  0  0  0
    0.7273   -0.1531   -0.9459 C   0  0  1  0  0  0  0  0  0  0  0  0
   -0.3285    0.5021   -1.7699 C   0  0  0  0  0  0  0  0  0  0  0  0
    1.0920   -1.5312   -1.4097 C   0  0  0  0  0  3  0  0  0  0  0  0
    1.7907   -2.2299   -0.2415 C   0  0  0  0  0  3  0  0  0  0  0  0
    0.9374   -3.3717    0.2759 C   0  0  0  0  0  0  0  0  0  0  0  0
   -0.1687   -2.8739    1.1839 C   0  0  1  0  0  0  0  0  0  0  0  0
   -0.2866   -3.6934    2.4455 C   0  0  0  0  0  0  0  0  0  0  0  0
    0.0490   -1.4293    1.5782 C   0  0  0  0  0  0  0  0  0  0  0  0
   -1.1333   -0.9984    2.4210 C   0  0  2  0  0  0  0  0  0  0  0  0
   -2.2627   -1.8138    2.0578 N   0  0  0  0  0  0  0  0  0  0  0  0
   -1.4578    0.4320    2.0006 C   0  0  0  0  0  3  0  0  0  0  0  0
   -2.6134    0.4516    1.0640 C   0  0  0  0  0  0  0  0  0  0  0  0
   -3.8604    0.2164    0.9366 C   0  0  0  0  0  0  0  0  0  0  0  0
   -4.8464   -0.2631    1.8478 O   0  0  0  0  0  0  0  0  0  0  0  0
   -3.8540    0.6225   -0.4584 C   0  0  0  0  0  0  0  0  0  0  0  0
   -2.4364    0.8797   -0.2785 C   0  0  1  0  0  0  0  0  0  0  0  0
   -1.9551    2.2839   -0.3539 C   0  0  0  0  0  0  0  0  0  0  0  0
   -1.6398    3.7426   -0.2931 C   0  0  0  0  0  0  0  0  0  0  0  0
   -0.9339    2.7105   -1.0356 C   0  0  0  0  0  0  0  0  0  0  0  0
   -0.0047    1.9608   -1.8884 C   0  0  0  0  0  0  0  0  0  0  0  0
  1  2  1  0
  2  3  1  0
  2  4  1  0
  4  5  1  0
  5  6  1  0
  7  6  1  6
  7  8  1  0
  7  9  1  0
  9 10  1  0
 10 11  1  0
 11 12  1  0
 12 13  1  1
 12 14  1  0
 14 15  1  0
 15 16  1  6
 15 17  1  0
 17 18  1  0
 18 19  2  0
 19 20  1  0
 19 21  1  0
 22 21  1  6
 22 23  1  0
 23 24  1  0
 23 25  2  0
 25 26  1  0
 26  8  1  0
 22 18  1  0
 25 24  1  0
M  RAD  3   9   2  10   2  17   2
M  END
>  <fragInfo>  (1) 
7 8 9 10 11 12 13 14 15 16 17 18 19 20 21 22 23 24 25 26
1 2 3
4
5
6


>  <torsionInfo>  (1) 
6 7 4 0
2 4 1 2
4 5 2 3
5 6 3 4


>  <atomInfo>  (1) 
1  -0.0627736C 
2  -0.0471324C 
3  -0.0627736C 
4  -0.0509641C 
5  -0.0527878C 
6  -0.0501410C 
7  -0.0377195C 
8  -0.0463931C 
9  -0.0320640C 
10 -0.0346427C 
11 -0.0472347C 
12 -0.0425018C 
13 -0.0624410C 
14 -0.0347777C 
15 0.01150744C 
16 -0.3271068NA
17 0.00729888C 
18 -0.0197532C 
19 0.09332046C 
20 -0.5123017OA
21 0.01514617C 
22 0.01227721C 
23 -0.0588645C 
24 -0.0096465C 
25 -0.0659719C 
26 -0.0311316C 


$$$$
