
     RDKit          3D

 28 31  0  0  0  0  0  0  0  0999 V2000
    6.2911    0.0894   -1.2582 C   0  0  0  0  0  0  0  0  0  0  0  0
    5.6837   -1.2781   -1.5195 C   0  0  0  0  0  0  0  0  0  0  0  0
    6.1202   -1.6866   -2.9171 C   0  0  0  0  0  0  0  0  0  0  0  0
    4.1764   -1.1399   -1.5187 C   0  0  0  0  0  0  0  0  0  0  0  0
    3.6479   -0.6276   -0.2172 C   0  0  0  0  0  0  0  0  0  0  0  0
    4.1948    0.7155    0.1202 C   0  0  0  0  0  0  0  0  0  0  0  0
    3.7392    1.3255    1.3934 C   0  0  1  0  0  0  0  0  0  0  0  0
    4.4815    2.6887    1.5229 C   0  0  0  0  0  0  0  0  0  0  0  0
    2.3144    1.6526    1.5152 C   0  0  0  0  0  3  0  0  0  0  0  0
    1.2973    0.5762    1.3669 C   0  0  1  0  0  0  0  0  0  0  0  0
   -0.0629    1.2260    1.7733 C   0  0  0  0  0  0  0  0  0  0  0  0
   -0.2878    2.2980    0.7096 C   0  0  2  0  0  0  0  0  0  0  0  0
   -0.3288    3.6481    1.3950 C   0  0  0  0  0  0  0  0  0  0  0  0
   -1.6278    2.0731    0.0286 C   0  0  0  0  0  0  0  0  0  0  0  0
   -2.6190    1.4559    0.9879 C   0  0  0  0  0  0  0  0  0  0  0  0
   -3.0757    0.1065    0.5517 C   0  0  1  0  0  0  0  0  0  0  0  0
   -4.1762    0.2507   -0.5204 C   0  0  2  0  0  0  0  0  0  0  0  0
   -4.9793   -0.9632   -0.8990 C   0  0  2  0  0  0  0  0  0  0  0  0
   -4.9137   -2.1727   -0.0557 C   0  0  2  0  0  0  0  0  0  0  0  0
   -3.9048   -2.2540    1.0322 C   0  0  0  0  0  0  0  0  0  0  0  0
   -4.5773   -2.9595   -1.3377 C   0  0  0  0  0  2  0  0  0  0  0  0
   -3.8920   -1.7287   -1.9053 C   0  0  2  0  0  0  0  0  0  0  0  0
   -2.8023   -1.1714   -1.1298 C   0  0  0  0  0  0  0  0  0  0  0  0
   -3.2421    0.2062   -1.7230 C   0  0  0  0  0  0  0  0  0  0  0  0
   -1.8195   -0.4015   -0.4198 C   0  0  2  0  0  0  0  0  0  0  0  0
   -0.9626   -1.0472    0.4198 O   0  0  0  0  0  0  0  0  0  0  0  0
    0.2833   -1.0906   -0.2016 C   0  0  0  0  0  0  0  0  0  0  0  0
    1.0421    0.2084   -0.1049 C   0  0  0  0  0  2  0  0  0  0  0  0
  1  2  1  0
  2  3  1  0
  2  4  1  0
  4  5  1  0
  5  6  1  0
  6  7  1  0
  7  8  1  6
  7  9  1  0
 10  9  1  6
 10 11  1  0
 11 12  1  0
 12 13  1  1
 12 14  1  0
 14 15  1  0
 16 15  1  6
 16 17  1  0
 17 18  1  0
 18 19  1  1
 19 20  1  1
 19 21  1  0
 22 21  1  1
 22 23  1  0
 23 24  2  0
 16 25  1  0
 25 26  1  1
 26 27  1  0
 27 28  1  0
 28 10  1  0
 17 24  1  6
 22 18  1  0
 25 23  1  0
M  RAD  3   9   2  21   3  28   3
M  END
>  <fragInfo>  (1) 
10 11 12 13 14 15 16 17 18 19 20 21 22 23 24 25 26 27 28
1 2 3
4
5
6
7 8
9


>  <torsionInfo>  (1) 
9 10 6 0
2 4 1 2
4 5 2 3
5 6 3 4
6 7 4 5
7 9 5 6


>  <atomInfo>  (1) 
1  -0.0627736C 
2  -0.0471324C 
3  -0.0627736C 
4  -0.0509643C 
5  -0.0527981C 
6  -0.0504158C 
7  -0.0408624C 
8  -0.0622234C 
9  -0.0319502C 
10 -0.0285989C 
11 -0.0469058C 
12 -0.0439710C 
13 -0.0624987C 
14 -0.0503073C 
15 -0.0468111C 
16 -0.0044582C 
17 -0.0136319C 
18 -0.0242961C 
19 -0.0328250C 
20 -0.0616040C 
21 -0.0057673C 
22 -0.0069613C 
23 -0.0410150C 
24 -0.0786145C 
25 0.08217838C 
26 -0.3729127OA
27 0.05461709C 
28 0.01439297C 


$$$$
