
     RDKit          3D

 21 20  0  0  0  0  0  0  0  0999 V2000
   -5.6673    1.7954   -0.1808 O   0  0  0  0  0  0  0  0  0  0  0  0
   -5.2547    0.5885   -0.7632 C   0  0  0  0  0  0  0  0  0  0  0  0
   -4.5529   -0.2368    0.3229 C   0  0  0  0  0  3  0  0  0  0  0  0
   -3.1684    0.1198    0.2556 N   0  0  0  0  0  0  0  0  0  0  0  0
   -2.2660   -0.9904    0.3198 C   0  0  2  0  0  0  0  0  0  0  0  0
   -2.3068   -1.7635    1.5984 C   0  0  0  0  0  0  0  0  0  0  0  0
   -3.5484   -2.3097    1.8540 O   0  0  0  0  0  0  0  0  0  0  0  0
   -0.8485   -0.4641    0.1211 C   0  0  1  0  0  0  0  0  0  0  0  0
    0.0279   -1.5683    0.1863 O   0  0  0  0  0  0  0  0  0  0  0  0
   -0.8381    0.1344   -1.2853 C   0  0  2  0  0  0  0  0  0  0  0  0
   -1.2663   -0.8874   -2.1663 O   0  0  0  0  0  0  0  0  0  0  0  0
    0.6055    0.4261   -1.6286 C   0  0  1  0  0  0  0  0  0  0  0  0
    1.2255    1.5742   -0.4218 Cl  0  0  0  0  0  0  0  0  0  0  0  0
    1.3744   -0.8716   -1.5866 C   0  0  0  0  0  0  0  0  0  0  0  0
    2.7101   -0.6321   -1.9000 O   0  0  0  0  0  0  0  0  0  0  0  0
    3.2671    0.2607   -0.9835 C   0  0  2  0  0  0  0  0  0  0  0  0
    4.7298    0.4679   -1.3909 C   0  0  0  0  0  0  0  0  0  0  0  0
    3.3344   -0.3874    0.4029 C   0  0  0  0  0  0  0  0  0  0  0  0
    3.8984    0.5489    1.2635 O   0  0  0  0  0  0  0  0  0  0  0  0
    3.9984    0.0355    2.5549 C   0  0  0  0  0  0  0  0  0  0  0  0
    4.5458    0.9271    3.4274 F   0  0  0  0  0  0  0  0  0  0  0  0
  1  2  1  0
  2  3  1  0
  3  4  1  0
  4  5  1  0
  5  6  1  1
  6  7  1  0
  5  8  1  0
  8  9  1  6
  8 10  1  0
 10 11  1  6
 10 12  1  0
 12 13  1  1
 12 14  1  0
 14 15  1  0
 15 16  1  0
 16 17  1  6
 16 18  1  0
 18 19  1  0
 19 20  1  0
 20 21  1  0
M  RAD  1   3   2
M  END
>  <fragInfo>  (1) 
1 2
3
4
5
6 7
8 9
10 11
12 13
14
15
16 17
18
19
20 21


>  <torsionInfo>  (1) 
2 3 0 1
3 4 1 2
4 5 2 3
5 6 3 4
5 8 3 5
8 10 5 6
10 12 6 7
12 14 7 8
14 15 8 9
15 16 9 10
16 18 10 11
18 19 11 12
19 20 12 13


>  <atomInfo>  (1) 
1  -0.3946905OA
2  0.06004187C 
3  0.04808499C 
4  -0.3028766NA
5  0.05922443C 
6  0.06106426C 
7  -0.3946489OA
8  0.09891234C 
9  -0.3886427OA
10 0.10004610C 
11 -0.3887231OA
12 0.08543366C 
13 -0.1175350Cl
14 0.06608311C 
15 -0.3744730OA
16 0.07818939C 
17 -0.0363897C 
18 0.07576343C 
19 -0.3478161OA
20 0.18789346C 
21 -0.2199435F 


$$$$
