
     RDKit          3D

 15 15  0  0  0  0  0  0  0  0999 V2000
   -0.0146   -2.6170    0.0298 C   0  0  0  0  0  0  0  0  0  0  0  0
   -0.9902   -1.4894   -0.0815 C   0  0  1  0  0  0  0  0  0  0  0  0
   -1.6234   -1.1986    1.2438 C   0  0  0  0  0  0  0  0  0  0  0  0
   -2.3837    0.0782    1.3266 C   0  0  2  0  0  0  0  0  0  0  0  0
   -3.6174    0.0447    0.7131 O   0  0  0  0  0  0  0  0  0  0  0  0
   -1.5989    1.2242    0.7026 C   0  0  2  0  0  0  0  0  0  0  0  0
   -2.2229    2.4270    0.8579 O   0  0  0  0  0  0  0  0  0  0  0  0
   -1.3541    0.8116   -0.7329 C   0  0  1  0  0  0  0  0  0  0  0  0
   -0.9760    1.8734   -1.5404 O   0  0  0  0  0  0  0  0  0  0  0  0
   -0.3197   -0.2916   -0.6925 C   0  0  1  0  0  0  0  0  0  0  0  0
    0.7351    0.1439    0.1952 N   0  0  0  0  0  0  0  0  0  0  0  0
    1.7928   -0.8208    0.3751 C   0  0  0  0  0  3  0  0  0  0  0  0
    3.0136   -0.2281   -0.2441 C   0  0  0  0  0  0  0  0  0  0  0  0
    4.2287   -0.3078    0.2351 C   0  0  0  0  0  0  0  0  0  0  0  0
    5.3308    0.3503   -0.5271 C   0  0  0  0  0  2  0  0  0  0  0  0
  2  1  1  1
  2  3  1  0
  3  4  1  0
  4  5  1  6
  4  6  1  0
  6  7  1  6
  6  8  1  0
  8  9  1  6
  8 10  1  0
 10 11  1  1
 11 12  1  0
 12 13  1  0
 13 14  2  3
 14 15  1  0
 10  2  1  0
M  RAD  2  12   2  15   3
M  END
>  <fragInfo>  (1) 
1 2 3 4 5 6 7 8 9 10
11
12
13 14 15


>  <torsionInfo>  (1) 
10 11 0 1
11 12 1 2
12 13 2 3


>  <atomInfo>  (1) 
1  -0.0608231C 
2  -0.0236189C 
3  -0.0201753C 
4  0.08280077C 
5  -0.3903155OA
6  0.10722539C 
7  -0.3876533OA
8  0.09793870C 
9  -0.3886789OA
10 0.03866888C 
11 -0.3030954NA
12 0.04446826C 
13 -0.0694418C 
14 -0.0825827C 
15 -0.0095205C 


$$$$
