
     RDKit          3D

 69 73  0  0  0  0  0  0  0  0999 V2000
    8.8391    2.7698    1.7429 C   0  0  0  0  0  0  0  0  0  0  0  0
    9.1981    2.5677    0.3013 C   0  0  1  0  0  0  0  0  0  0  0  0
   10.6504    2.9276    0.0796 C   0  0  0  0  0  0  0  0  0  0  0  0
   11.5638    1.7739    0.4298 C   0  0  2  0  0  0  0  0  0  0  0  0
   11.9783    1.0624   -0.6892 O   0  0  0  0  0  0  0  0  0  0  0  0
   10.8841    0.7883    1.3662 C   0  0  2  0  0  0  0  0  0  0  0  0
   11.8125   -0.1955    1.6819 O   0  0  0  0  0  0  0  0  0  0  0  0
    9.7544    0.1400    0.5744 C   0  0  1  0  0  0  0  0  0  0  0  0
    8.9742   -0.6750    1.3796 O   0  0  0  0  0  0  0  0  0  0  0  0
    8.9601    1.1603   -0.1825 C   0  0  1  0  0  0  0  0  0  0  0  0
    7.5943    0.8282   -0.3778 N   0  0  0  0  0  0  0  0  0  0  0  0
    6.7654    0.8641    0.7782 C   0  0  0  0  0  3  0  0  0  0  0  0
    5.5078    1.6755    0.6050 C   0  0  0  0  0  0  0  0  0  0  0  0
    4.3524    0.8554    0.0904 C   0  0  1  0  0  0  0  0  0  0  0  0
    4.7304    0.3359   -1.1454 O   0  0  0  0  0  0  0  0  0  0  0  0
    3.8894   -0.1943    1.0579 C   0  0  0  0  0  3  0  0  0  0  0  0
    4.8571   -1.1083    1.3885 O   0  0  0  0  0  0  0  0  0  0  0  0
    4.3336   -2.3886    1.2223 C   0  0  0  0  0  0  0  0  0  0  0  0
    3.1274   -2.6218    2.1012 C   0  0  1  0  0  0  0  0  0  0  0  0
    3.5215   -2.4607    3.4251 O   0  0  0  0  0  0  0  0  0  0  0  0
    1.9992   -1.6548    1.8161 C   0  0  2  0  0  0  0  0  0  0  0  0
    0.8720   -2.0306    2.7846 C   0  0  0  0  0  0  0  0  0  0  0  0
    1.5257   -1.8000    0.3896 C   0  0  1  0  0  0  0  0  0  0  0  0
    1.0153   -3.1600    0.0578 C   0  0  0  0  0  0  0  0  0  0  0  0
    1.9706   -3.7506   -0.9870 C   0  0  0  0  0  3  0  0  0  0  0  0
    2.1463   -2.8765   -2.0595 O   0  0  0  0  0  0  0  0  0  0  0  0
    2.4196   -1.6542   -1.6965 O   0  0  0  0  0  0  0  0  0  0  0  0
    1.5429   -0.7384   -2.1072 N   0  0  0  0  0  3  0  0  0  0  0  0
    1.9992    0.0332   -3.1081 O   0  0  0  0  0  0  0  0  0  0  0  0
    1.1954    0.0771   -1.0801 O   0  0  0  0  0  0  0  0  0  0  0  0
    0.6654   -0.6774   -0.0658 C   0  0  1  0  0  0  0  0  0  0  0  0
   -0.7494   -1.0089   -0.3552 C   0  0  2  0  0  0  0  0  0  0  0  0
   -1.4039   -1.7658    0.5814 O   0  0  0  0  0  0  0  0  0  0  0  0
   -1.0584   -1.4131   -1.7551 C   0  0  1  0  0  0  0  0  0  0  0  0
   -1.6748   -2.7884   -1.9395 C   0  0  2  0  0  0  0  0  0  0  0  0
   -0.8880   -3.7039   -2.8698 C   0  0  0  0  0  2  0  0  0  0  0  0
   -2.8102   -2.1620   -2.7615 C   0  0  0  0  0  3  0  0  0  0  0  0
   -2.4510   -0.8563   -2.0848 C   0  0  2  0  0  0  0  0  0  0  0  0
   -2.3916    0.3352   -2.9827 C   0  0  0  0  0  0  0  0  0  0  0  0
   -3.8004    0.5274   -3.5578 C   0  0  0  0  0  3  0  0  0  0  0  0
   -4.7225    1.1526   -2.5633 C   0  0  0  0  0  0  0  0  0  0  0  0
   -4.9094    0.3218   -1.3233 C   0  0  0  0  0  0  0  0  0  0  0  0
   -6.0501    0.7743   -0.4755 C   0  0  2  0  0  0  0  0  0  0  0  0
   -5.9763    0.3080    0.9423 C   0  0  0  0  0  3  0  0  0  0  0  0
   -7.1840    0.8308    1.6879 C   0  0  1  0  0  0  0  0  0  0  0  0
   -7.1762    0.3928    3.1386 C   0  0  0  0  0  0  0  0  0  0  0  0
   -7.2872    2.2183    1.5804 O   0  0  0  0  0  0  0  0  0  0  0  0
   -8.3885    2.7100    2.2593 C   0  0  0  0  0  2  0  0  0  0  0  0
   -7.3488    0.2929   -1.0636 C   0  0  1  0  0  0  0  0  0  0  0  0
   -7.8458    1.2796   -2.0941 C   0  0  0  0  0  3  0  0  0  0  0  0
   -7.1048    2.4604   -2.0791 O   0  0  0  0  0  0  0  0  0  0  0  0
   -7.8069    3.5495   -1.6261 C   0  0  0  0  0  3  0  0  0  0  0  0
   -6.8866    4.4074   -0.7847 C   0  0  0  0  0  3  0  0  0  0  0  0
   -5.4252    4.1022   -1.0297 C   0  0  0  0  0  3  0  0  0  0  0  0
   -4.7751    3.7515    0.1607 O   0  0  0  0  0  0  0  0  0  0  0  0
   -3.5318    3.1892   -0.1177 C   0  0  0  0  0  3  0  0  0  0  0  0
   -3.0523    2.3474    1.0184 C   0  0  0  0  0  3  0  0  0  0  0  0
   -2.4163    1.1707    0.6101 O   0  0  0  0  0  0  0  0  0  0  0  0
   -2.6257    0.1157    1.4680 C   0  0  2  0  0  0  0  0  0  0  0  0
   -1.7809    0.1256    2.6997 C   0  0  0  0  0  3  0  0  0  0  0  0
   -1.8553    1.5435    3.2792 C   0  0  0  0  0  3  0  0  0  0  0  0
   -3.0945    1.6560    3.9460 O   0  0  0  0  0  0  0  0  0  0  0  0
   -7.3069   -1.1179   -1.5422 C   0  0  0  0  0  3  0  0  0  0  0  0
   -5.9878   -1.7969   -1.3876 C   0  0  0  0  0  3  0  0  0  0  0  0
   -5.7864   -2.4052   -0.0237 C   0  0  0  0  0  3  0  0  0  0  0  0
   -4.3742   -2.8479    0.1744 C   0  0  2  0  0  0  0  0  0  0  0  0
   -4.3659   -4.2214    0.4807 O   0  0  0  0  0  0  0  0  0  0  0  0
   -3.6706   -2.1571    1.3229 C   0  0  0  0  0  3  0  0  0  0  0  0
   -2.6823   -1.1903    0.7516 C   0  0  2  0  0  0  0  0  0  0  0  0
  2  1  1  1
  2  3  1  0
  3  4  1  0
  4  5  1  6
  4  6  1  0
  6  7  1  6
  6  8  1  0
  8  9  1  1
  8 10  1  0
 10 11  1  1
 11 12  1  0
 12 13  1  0
 13 14  1  0
 14 15  1  6
 14 16  1  0
 16 17  1  0
 17 18  1  0
 18 19  1  0
 19 20  1  1
 19 21  1  0
 21 22  1  1
 21 23  1  0
 23 24  1  1
 24 25  1  0
 25 26  1  0
 26 27  1  0
 27 28  1  0
 28 29  1  0
 28 30  1  0
 31 30  1  6
 31 32  1  0
 32 33  1  1
 32 34  1  0
 34 35  1  1
 35 36  1  6
 35 37  1  0
 38 37  1  6
 38 39  1  0
 39 40  1  0
 40 41  1  0
 41 42  1  0
 42 43  1  0
 43 44  1  1
 44 45  1  0
 45 46  1  1
 45 47  1  0
 47 48  1  0
 43 49  1  0
 49 50  1  6
 50 51  1  0
 51 52  1  0
 52 53  1  0
 53 54  1  0
 54 55  1  0
 55 56  1  0
 56 57  1  0
 57 58  1  0
 58 59  1  0
 59 60  1  1
 60 61  1  0
 61 62  1  0
 49 63  1  0
 63 64  1  0
 64 65  1  0
 65 66  1  0
 66 67  1  1
 66 68  1  0
 68 69  1  0
 10  2  1  0
 31 23  1  0
 69 33  1  1
 38 34  1  0
 69 59  1  0
M  RAD  8  12   2  16   2  25   2  28   2  36   3  37   2  40   2  44   2
M  RAD  8  48   3  50   2  52   2  53   2  54   2  56   2  57   2  60   2
M  CHG  1  28   1
M  RAD  5  61   2  63   2  64   2  65   2  68   2
M  END
>  <fragInfo>  (1) 
32 33 34 35 36 37 38 39 40 41 42 43 49 50 51 52 53 54 55 56 57 58 59 63 64 65 66 67 68 69
1 2 3 4 5 6 7 8 9 10
11
12
13
14 15
16
17
18
19 20
21 22
23 24 25 26 27 28 29 30 31
44
45 46
47 48
60
61 62


>  <torsionInfo>  (1) 
31 32 11 0
43 44 0 12
59 60 0 15
10 11 1 2
11 12 2 3
12 13 3 4
13 14 4 5
14 16 5 6
16 17 6 7
17 18 7 8
18 19 8 9
19 21 9 10
21 23 10 11
44 45 12 13
45 47 13 14
60 61 15 16


>  <atomInfo>  (1) 
1  -0.0608233C 
2  -0.0236285C 
3  -0.0201755C 
4  0.08280077C 
5  -0.3903155OA
6  0.10722522C 
7  -0.3876533OA
8  0.09792914C 
9  -0.3886791OA
10 0.03839079C 
11 -0.3066599NA
12 0.02511902C 
13 -0.0073194C 
14 0.08435825C 
15 -0.3902523OA
16 0.11216119C 
17 -0.3700050OA
18 0.07347693C 
19 0.08025016C 
20 -0.3904355OA
21 -0.0100630C 
22 -0.0595780C 
23 0.00214909C 
24 -0.0145330C 
25 0.12934362C 
26 -0.1670313OA
27 0.10864801OA
28 0.38257154N 
29 -0.0838966OA
30 -0.0637116OA
31 0.16207086C 
32 0.09450840C 
33 -0.3685725OA
34 -0.0055921C 
35 -0.0289118C 
36 -0.0310963C 
37 -0.0312946C 
38 -0.0320299C 
39 -0.0466661C 
40 -0.0382773C 
41 -0.0498844C 
42 -0.0494271C 
43 -0.0300353C 
44 -0.0064621C 
45 0.05876593C 
46 -0.0383608C 
47 -0.3693228OA
48 0.11543729C 
49 -0.0057770C 
50 0.08782410C 
51 -0.3688415OA
52 0.09039607C 
53 0.02454302C 
54 0.09052351C 
55 -0.3662217OA
56 0.11559381C 
57 0.11559381C 
58 -0.3662219OA
59 0.09050905C 
60 0.02422830C 
61 0.08610058C 
62 -0.3900109OA
63 -0.0287286C 
64 -0.0287315C 
65 -0.0058686C 
66 0.06330544C 
67 -0.3924089OA
68 0.02186973C 
69 0.09030134C 


$$$$
