
     RDKit          3D

 32 33  0  0  0  0  0  0  0  0999 V2000
    8.0856    0.9997    1.0776 C   0  0  0  0  0  0  0  0  0  0  0  0
    6.8282    0.4452    0.4154 C   0  0  0  0  0  0  0  0  0  0  0  0
    7.1721   -0.7712   -0.4190 C   0  0  0  0  0  0  0  0  0  0  0  0
    6.2932    1.5056   -0.5438 C   0  0  0  0  0  0  0  0  0  0  0  0
    5.0528    0.9537   -1.1946 C   0  0  0  0  0  0  0  0  0  0  0  0
    5.3026   -0.3025   -1.9671 C   0  0  0  0  0  0  0  0  0  0  0  0
    4.0123   -0.7714   -2.5745 C   0  0  1  0  0  0  0  0  0  0  0  0
    4.2172   -2.0431   -3.3676 C   0  0  0  0  0  0  0  0  0  0  0  0
    2.9694   -0.9831   -1.5095 C   0  0  0  0  0  3  0  0  0  0  0  0
    2.6883    0.2997   -0.7511 C   0  0  0  0  0  0  0  0  0  0  0  0
    1.6562    0.1181    0.3128 C   0  0  0  0  0  0  0  0  0  0  0  0
    0.3367   -0.3473   -0.2652 C   0  0  2  0  0  0  0  0  0  0  0  0
   -0.1459    0.6793   -1.2363 C   0  0  0  0  0  3  0  0  0  0  0  0
    0.4856    0.5263   -2.6116 C   0  0  0  0  0  0  0  0  0  0  0  0
   -1.6278    0.7119   -1.4199 C   0  0  0  0  0  0  0  0  0  0  0  0
   -2.0796   -0.4772   -2.2408 C   0  0  1  0  0  0  0  0  0  0  0  0
   -1.4766   -1.7693   -1.7655 C   0  0  0  0  0  0  0  0  0  0  0  0
   -3.5973   -0.6369   -2.1728 C   0  0  0  0  0  0  0  0  0  0  0  0
   -4.1443    0.6673   -1.6338 C   0  0  0  0  0  0  0  0  0  0  0  0
   -5.6065    0.4811   -1.3508 C   0  0  0  0  0  0  0  0  0  0  0  0
   -5.9361    0.9393    0.0536 C   0  0  0  0  0  0  0  0  0  0  0  0
   -5.9087   -0.2121    1.0456 C   0  0  0  0  0  0  0  0  0  0  0  0
   -5.2448    0.2150    2.1869 O   0  0  0  0  0  0  0  0  0  0  0  0
   -4.8730   -0.8382    3.0131 C   0  0  0  0  0  0  0  0  0  0  0  0
   -3.4980   -0.5788    3.6412 C   0  0  0  0  0  0  0  0  0  0  0  0
   -2.4936   -0.7373    2.5168 C   0  0  1  0  0  0  0  0  0  0  0  0
   -2.7811    0.2613    1.5849 O   0  0  0  0  0  0  0  0  0  0  0  0
   -2.4976    1.4752    2.1895 C   0  0  0  0  0  0  0  0  0  0  0  0
   -1.4238    1.2180    3.2138 C   0  0  0  0  0  0  0  0  0  0  0  0
   -1.1506   -0.2624    3.0343 C   0  0  2  0  0  0  0  0  0  0  0  0
   -0.0611   -0.3924    2.0057 C   0  0  0  0  0  0  0  0  0  0  0  0
   -0.5536   -0.6596    0.7327 O   0  0  0  0  0  0  0  0  0  0  0  0
  1  2  1  0
  2  3  1  0
  2  4  1  0
  4  5  1  0
  5  6  1  0
  6  7  1  0
  7  8  1  1
  7  9  1  0
  9 10  1  0
 10 11  1  0
 12 11  1  1
 12 13  1  0
 13 14  1  0
 13 15  1  0
 15 16  1  0
 16 17  1  1
 16 18  1  0
 18 19  1  0
 19 20  1  0
 20 21  1  0
 21 22  1  0
 22 23  1  0
 23 24  1  0
 24 25  1  0
 26 25  1  1
 26 27  1  0
 27 28  1  0
 28 29  1  0
 30 29  1  6
 30 31  1  0
 31 32  1  0
 32 12  1  0
 30 26  1  0
M  RAD  2   9   2  13   2
M  END
>  <fragInfo>  (1) 
12 13 14 15 16 17 18 19 20 21 22 23 24 25 26 27 28 29 30 31 32
1 2 3
4
5
6
7 8
9
10
11


>  <torsionInfo>  (1) 
11 12 8 0
2 4 1 2
4 5 2 3
5 6 3 4
6 7 4 5
7 9 5 6
9 10 6 7
10 11 7 8


>  <atomInfo>  (1) 
1  -0.0627736C 
2  -0.0471324C 
3  -0.0627736C 
4  -0.0509643C 
5  -0.0527983C 
6  -0.0504266C 
7  -0.0411589C 
8  -0.0622342C 
9  -0.0356536C 
10 -0.0474289C 
11 -0.0258865C 
12 0.06347310C 
13 0.00184490C 
14 -0.0565229C 
15 -0.0421647C 
16 -0.0436439C 
17 -0.0624874C 
18 -0.0506874C 
19 -0.0529676C 
20 -0.0511042C 
21 -0.0296034C 
22 0.04655568C 
23 -0.3813504OA
24 0.04903741C 
25 -0.0027427C 
26 0.06475684C 
27 -0.3777368OA
28 0.04739672C 
29 -0.0220484C 
30 0.01081291C 
31 0.05235040C 
32 -0.3772396OA


$$$$
