
     RDKit          3D

 29 31  0  0  0  0  0  0  0  0999 V2000
    7.9391    0.8704    0.6922 C   0  0  0  0  0  0  0  0  0  0  0  0
    8.0095    1.3840    2.1201 C   0  0  0  0  0  0  0  0  0  0  0  0
    8.8406    2.6437    2.0954 C   0  0  0  0  0  0  0  0  0  0  0  0
    6.6270    1.7543    2.6195 C   0  0  0  0  0  0  0  0  0  0  0  0
    5.7575    0.5225    2.5690 C   0  0  0  0  0  0  0  0  0  0  0  0
    5.6873    0.0355    1.1408 C   0  0  0  0  0  0  0  0  0  0  0  0
    5.0896    1.1295    0.2687 C   0  0  1  0  0  0  0  0  0  0  0  0
    5.0071    0.6693   -1.1688 C   0  0  0  0  0  0  0  0  0  0  0  0
    3.6843    1.4715    0.7693 C   0  0  0  0  0  3  0  0  0  0  0  0
    2.8525    0.1870    0.6743 C   0  0  0  0  0  0  0  0  0  0  0  0
    1.4493    0.5023    1.1678 C   0  0  0  0  0  0  0  0  0  0  0  0
    0.6109   -0.7553    1.0817 C   0  0  0  0  0  3  0  0  0  0  0  0
    1.2628   -1.8054    1.9557 C   0  0  0  0  0  0  0  0  0  0  0  0
    0.5603   -1.1923   -0.3372 C   0  0  0  0  0  0  0  0  0  0  0  0
   -0.2406   -2.4346   -0.5778 C   0  0  0  0  0  0  0  0  0  0  0  0
   -1.6616   -2.3567   -0.1928 C   0  0  1  0  0  0  0  0  0  0  0  0
   -1.9160   -2.0656    1.2575 C   0  0  0  0  0  0  0  0  0  0  0  0
   -2.4749   -1.4135   -1.0653 C   0  0  1  0  0  0  0  0  0  0  0  0
   -3.9206   -1.2744   -0.7463 C   0  0  0  0  0  0  0  0  0  0  0  0
   -3.1281   -0.2716   -0.3736 C   0  0  0  0  0  0  0  0  0  0  0  0
   -3.8523    0.7280    0.2581 O   0  0  0  0  0  0  0  0  0  0  0  0
   -5.2137    0.5461   -0.0855 C   0  0  0  0  0  0  0  0  0  0  0  0
   -5.2886   -0.9175   -0.3305 C   0  0  1  0  0  0  0  0  0  0  0  0
   -6.3337   -1.2893   -1.2897 C   0  0  0  0  0  0  0  0  0  0  0  0
   -6.3622   -0.8423   -2.5379 O   0  0  0  0  0  0  0  0  0  0  0  0
   -6.4513    0.4426   -2.8865 C   0  0  1  0  0  0  0  0  0  0  0  0
   -5.5425    1.4481   -2.5668 O   0  0  0  0  0  0  0  0  0  0  0  0
   -5.6890    1.0440   -3.9782 C   0  0  0  0  0  0  0  0  0  0  0  0
   -5.3027    1.2398   -5.1439 O   0  0  0  0  0  0  0  0  0  0  0  0
  1  2  1  0
  2  3  1  0
  2  4  1  0
  4  5  1  0
  5  6  1  0
  6  7  1  0
  7  8  1  6
  7  9  1  0
  9 10  1  0
 10 11  1  0
 11 12  1  0
 12 13  1  0
 12 14  1  0
 14 15  1  0
 15 16  1  0
 16 17  1  1
 16 18  1  0
 18 19  1  1
 19 20  2  0
 20 21  1  0
 21 22  1  0
 22 23  1  0
 23 24  1  6
 24 25  1  0
 26 25  1  1
 26 27  1  0
 27 28  1  0
 28 29  2  0
 20 18  1  0
 23 19  1  0
 28 26  1  0
M  RAD  2   9   2  12   2
M  END
>  <fragInfo>  (1) 
18 19 20 21 22 23
1 2 3
4
5
6
7 8
9
10
11
12 13
14
15
16 17
24
25
26 27 28 29


>  <torsionInfo>  (1) 
16 18 12 0
23 24 0 13
2 4 1 2
4 5 2 3
5 6 3 4
6 7 4 5
7 9 5 6
9 10 6 7
10 11 7 8
11 12 8 9
12 14 9 10
14 15 10 11
15 16 11 12
24 25 13 14
25 26 14 15


>  <atomInfo>  (1) 
1  -0.0627736C 
2  -0.0471324C 
3  -0.0627736C 
4  -0.0509643C 
5  -0.0527983C 
6  -0.0504266C 
7  -0.0411602C 
8  -0.0622342C 
9  -0.0357297C 
10 -0.0493794C 
11 -0.0470560C 
12 -0.0271717C 
13 -0.0591219C 
14 -0.0470515C 
15 -0.0491594C 
16 -0.0304106C 
17 -0.0614942C 
18 0.04405735C 
19 -0.0121121C 
20 0.10394758C 
21 -0.4965748OA
22 0.09663321C 
23 0.04193922C 
24 0.06139312C 
25 -0.3331671OA
26 0.30216353C 
27 -0.4191792OA
28 0.37876736C 
29 -0.2445757OA


$$$$
