
     RDKit          3D

 26 26  0  0  0  0  0  0  0  0999 V2000
    2.8684    2.4624    0.5165 C   0  0  0  0  0  0  0  0  0  0  0  0
    3.0562    1.5555   -0.6567 C   0  0  1  0  0  0  0  0  0  0  0  0
    4.4768    1.1827   -0.9157 C   0  0  0  0  0  0  0  0  0  0  0  0
    5.0049    0.1473    0.0668 C   0  0  2  0  0  0  0  0  0  0  0  0
    5.3838   -0.9599   -0.7109 O   0  0  0  0  0  0  0  0  0  0  0  0
    3.8392   -0.3243    0.9316 C   0  0  2  0  0  0  0  0  0  0  0  0
    4.2367   -1.3168    1.7986 O   0  0  0  0  0  0  0  0  0  0  0  0
    2.7562   -0.7790    0.0096 C   0  0  1  0  0  0  0  0  0  0  0  0
    1.8907   -1.6963    0.5519 O   0  0  0  0  0  0  0  0  0  0  0  0
    2.1071    0.3947   -0.6376 C   0  0  1  0  0  0  0  0  0  0  0  0
    0.8970    0.8204    0.0359 N   0  0  0  0  0  0  0  0  0  0  0  0
   -0.0861   -0.2390    0.1052 C   0  0  0  0  0  3  0  0  0  0  0  0
   -1.4999    0.2805   -0.0988 C   0  0  1  0  0  0  0  0  0  0  0  0
   -1.8952    1.2924    0.9274 C   0  0  0  0  0  0  0  0  0  0  0  0
   -1.1202    2.4370    0.8913 O   0  0  0  0  0  0  0  0  0  0  0  0
   -1.1929    3.0860   -0.3301 C   0  0  0  0  0  3  0  0  0  0  0  0
   -1.5718    4.4016   -0.0789 O   0  0  0  0  0  0  0  0  0  0  0  0
   -2.3184    4.4278    1.0798 C   0  0  0  0  0  2  0  0  0  0  0  0
   -1.6370    0.8621   -1.3676 O   0  0  0  0  0  0  0  0  0  0  0  0
   -2.4270   -0.9044   -0.0062 C   0  0  2  0  0  0  0  0  0  0  0  0
   -2.0401   -1.8814   -1.0877 C   0  0  0  0  0  2  0  0  0  0  0  0
   -3.8683   -0.5257   -0.1114 C   0  0  0  0  0  3  0  0  0  0  0  0
   -4.8718   -2.0303    0.0137 S   0  0  0  0  0  0  0  0  0  0  0  0
   -3.8824   -3.3992    0.2104 O   0  0  0  0  0  0  0  0  0  0  0  0
   -4.0892   -3.9995    1.3473 O   0  0  0  0  0  0  0  0  0  0  0  0
   -4.0167   -5.2947    1.1350 O   0  0  0  0  0  0  0  0  0  0  0  0
  2  1  1  1
  2  3  1  0
  3  4  1  0
  4  5  1  6
  4  6  1  0
  6  7  1  1
  6  8  1  0
  8  9  1  1
  8 10  1  0
 10 11  1  1
 11 12  1  0
 12 13  1  0
 13 14  1  0
 14 15  1  0
 15 16  1  0
 16 17  1  0
 17 18  1  0
 13 19  1  6
 13 20  1  0
 20 21  1  6
 20 22  1  0
 22 23  1  0
 23 24  1  0
 24 25  1  0
 25 26  1  0
 10  2  1  0
M  RAD  5  12   2  16   2  18   3  21   3  22   2
M  END
>  <fragInfo>  (1) 
1 2 3 4 5 6 7 8 9 10
11
12
13 19
14
15
16
17 18
20 21
22
23
24
25 26


>  <torsionInfo>  (1) 
10 11 0 1
11 12 1 2
12 13 2 3
13 14 3 4
13 20 3 8
14 15 4 5
15 16 5 6
16 17 6 7
20 22 8 9
22 23 9 10
23 24 10 11
24 25 11 12


>  <atomInfo>  (1) 
1  -0.0608233C 
2  -0.0236266C 
3  -0.0201755C 
4  0.08280077C 
5  -0.3903155OA
6  0.10722524C 
7  -0.3876533OA
8  0.09793099C 
9  -0.3886791OA
10 0.03849811C 
11 -0.3039905NA
12 0.05709282C 
13 0.10916662C 
14 0.08071245C 
15 -0.3448531OA
16 0.20950875C 
17 -0.3388831OA
18 0.11868688C 
19 -0.3854260OA
20 0.01034396C 
21 -0.0274027C 
22 0.05495077C 
23 0.03966779SA
24 -0.1325122OA
25 -0.0581295OA
26 -0.2202015OA


$$$$
