
     RDKit          3D

 18 19  0  0  0  0  0  0  0  0999 V2000
   -0.7654    0.2155   -2.1250 O   0  0  0  0  0  0  0  0  0  0  0  0
   -1.2016    0.0156   -0.9676 C   0  0  0  0  0  0  0  0  0  0  0  0
   -2.5612    0.2018   -0.4947 C   0  0  0  0  0  0  0  0  0  0  0  0
   -3.7477    0.5233   -1.1429 C   0  0  0  0  0  0  0  0  0  0  0  0
   -4.8975    0.6310   -0.4111 C   0  0  0  0  0  0  0  0  0  0  0  0
   -4.8964    0.4274    0.9459 C   0  0  0  0  0  0  0  0  0  0  0  0
   -3.7270    0.1085    1.5989 C   0  0  0  0  0  0  0  0  0  0  0  0
   -2.5593   -0.0044    0.8793 C   0  0  0  0  0  0  0  0  0  0  0  0
   -1.2103   -0.3261    1.3236 C   0  0  0  0  0  0  0  0  0  0  0  0
   -0.8115   -0.4696    2.5060 O   0  0  0  0  0  0  0  0  0  0  0  0
   -0.3376   -0.4663    0.1404 C   0  0  0  0  0  0  0  0  0  0  0  0
    0.8666    0.4055    0.3450 C   0  0  0  0  0  0  0  0  0  0  0  0
    1.7074    0.4612   -0.8517 N   0  0  0  0  0  0  0  0  0  0  0  0
    2.7866    1.3134   -0.4964 N   0  0  0  0  0  0  0  0  0  0  0  0
    4.1020    0.8307   -0.5366 C   0  0  0  0  0  0  0  0  0  0  0  0
    4.5621   -0.2045    0.1142 C   0  0  0  0  0  0  0  0  0  0  0  0
    5.9628   -0.5724   -0.0408 C   0  0  0  0  0  0  0  0  0  0  0  0
    6.7281    0.0877   -0.7864 O   0  0  0  0  0  0  0  0  0  0  0  0
  1  2  2  0
  2  3  1  0
  3  4  2  0
  4  5  1  0
  5  6  2  0
  6  7  1  0
  7  8  2  0
  8  9  1  0
  9 10  2  0
  9 11  1  0
 11 12  1  0
 12 13  1  0
 13 14  1  0
 14 15  1  0
 15 16  2  3
 16 17  1  0
 17 18  2  0
 11  2  1  0
  8  3  1  0
M  END
>  <fragInfo>  (1) 
1 2 3 4 5 6 7 8 9 10 11
12
13
14
15 16
17 18


>  <torsionInfo>  (1) 
11 12 0 1
12 13 1 2
13 14 2 3
14 15 3 4
16 17 4 5


>  <atomInfo>  (1) 
1  -0.2932796OA
2  0.17529008C 
3  0.02917109A 
4  -0.0506519A 
5  -0.0614976A 
6  -0.0614976A 
7  -0.0506519A 
8  0.02917109A 
9  0.17529008C 
10 -0.2932796OA
11 0.09992296C 
12 0.03226459C 
13 -0.2363771NA
14 -0.3286259N 
15 0.01575143C 
16 -0.0050762C 
17 0.14382709C 
18 -0.2985043OA


$$$$
