
     RDKit          3D

  9  9  0  0  0  0  0  0  0  0999 V2000
    2.2403    0.3722   -1.3696 O   0  0  0  0  0  0  0  0  0  0  0  0
    2.5941   -0.0588   -0.2529 C   0  0  0  0  0  0  0  0  0  0  0  0
    1.6162   -0.3613    0.7259 N   0  0  0  0  0  0  0  0  0  0  0  0
    0.2464   -0.1703    0.4244 C   0  0  0  0  0  0  0  0  0  0  0  0
   -0.1230    0.3051   -0.8107 C   0  0  0  0  0  0  0  0  0  0  0  0
   -1.4604    0.4779   -1.0681 C   0  0  0  0  0  0  0  0  0  0  0  0
   -2.4168    0.1887   -0.1288 C   0  0  0  0  0  0  0  0  0  0  0  0
   -2.0092   -0.2825    1.0884 C   0  0  0  0  0  0  0  0  0  0  0  0
   -0.6876   -0.4711    1.3913 C   0  0  0  0  0  0  0  0  0  0  0  0
  1  2  2  0
  2  3  1  0
  3  4  1  0
  4  5  2  0
  5  6  1  0
  6  7  2  0
  7  8  1  0
  8  9  2  0
  9  4  1  0
M  END
>  <fragInfo>  (1) 
4 5 6 7 8 9
1 2 3


>  <torsionInfo>  (1) 
3 4 1 0


>  <atomInfo>  (1) 
1  -0.2785320OA
2  0.21101246C 
3  -0.3286980N 
4  0.04041865A 
5  -0.0385452A 
6  -0.0602012A 
7  -0.0621174A 
8  -0.0602012A 
9  -0.0385452A 


$$$$
