
     RDKit          3D

 27 28  0  0  0  0  0  0  0  0999 V2000
   -6.8797    0.8699   -2.5318 C   0  0  0  0  0  0  0  0  0  0  0  0
   -6.5806    1.2667   -1.1329 C   0  0  0  0  0  0  0  0  0  0  0  0
   -5.3746    1.1237   -0.6475 C   0  0  0  0  0  0  0  0  0  0  0  0
   -4.3072    0.5684   -1.4845 C   0  0  0  0  0  0  0  0  0  0  0  0
   -3.0971    0.5096   -1.2138 C   0  0  0  0  0  0  0  0  0  0  0  0
   -1.7885    0.1831   -1.4821 C   0  0  0  0  0  0  0  0  0  0  0  0
   -1.0970   -0.1306   -2.7785 C   0  0  0  0  0  0  0  0  0  0  0  0
   -0.9300    0.1226   -0.4266 C   0  0  0  0  0  0  0  0  0  0  0  0
    0.4692   -0.2089   -0.5738 C   0  0  0  0  0  0  0  0  0  0  0  0
    1.3016   -0.2687    0.4254 C   0  0  0  0  0  0  0  0  0  0  0  0
    2.7321   -0.6086    0.2675 C   0  0  0  0  0  0  0  0  0  0  0  0
    3.1914   -0.8844   -1.0989 C   0  0  0  0  0  0  0  0  0  0  0  0
    3.5559   -0.6694    1.2424 C   0  0  0  0  0  0  0  0  0  0  0  0
    4.9225   -0.9664    1.3089 C   0  0  0  0  0  0  0  0  0  0  0  0
    5.4277   -0.9255    2.5055 O   0  0  0  0  0  0  0  0  0  0  0  0
    5.8251   -1.3002    0.2824 N   0  0  0  0  0  0  0  0  0  0  0  0
    7.1561   -1.5671    0.5150 C   0  0  0  0  0  0  0  0  0  0  0  0
    7.7752   -1.8530   -0.6236 N   0  0  0  0  0  0  0  0  0  0  0  0
    6.8695   -1.7780   -1.6046 C   0  0  0  0  0  0  0  0  0  0  0  0
    5.7156   -1.4432   -1.0080 N   0  0  0  0  0  0  0  0  0  0  0  0
   -5.0560    1.5064    0.7284 C   0  0  0  0  0  0  0  0  0  0  0  0
   -5.5932    0.4831    1.7060 C   0  0  0  0  0  0  0  0  0  0  0  0
   -5.6515    2.8449    1.1367 C   0  0  0  0  0  0  0  0  0  0  0  0
   -3.5416    1.6688    0.8934 C   0  0  0  0  0  0  0  0  0  0  0  0
   -2.9202    0.3522    1.2154 C   0  0  0  0  0  0  0  0  0  0  0  0
   -1.4459    0.4027    0.9080 C   0  0  0  0  0  0  0  0  0  0  0  0
   -0.6789    0.7019    1.8724 O   0  0  0  0  0  0  0  0  0  0  0  0
  1  2  1  0
  2  3  2  0
  3  4  1  0
  4  5  2  0
  5  6  1  0
  6  7  1  0
  6  8  2  0
  8  9  1  0
  9 10  2  0
 10 11  1  0
 11 12  1  0
 11 13  2  0
 13 14  1  0
 14 15  2  0
 14 16  1  0
 16 17  1  0
 17 18  2  0
 18 19  1  0
 19 20  2  0
  3 21  1  0
 21 22  1  0
 21 23  1  0
 21 24  1  0
 24 25  1  0
 25 26  1  0
 26 27  2  0
 26  8  1  0
 20 16  1  0
M  END
>  <fragInfo>  (1) 
1 2 3 4 5 6 7 8 21 22 23 24 25 26 27
9 10
11 12 13
14 15
16 17 18 19 20


>  <torsionInfo>  (1) 
8 9 0 1
10 11 1 2
13 14 2 3
14 16 3 4


>  <atomInfo>  (1) 
1  -0.0463866C 
2  -0.0838953C 
3  -0.0466095C 
4  -0.0585415C 
5  -0.0583182C 
6  -0.0403049C 
7  -0.0390497C 
8  0.02042183C 
9  -0.0508830C 
10 -0.0583951C 
11 -0.0455640C 
12 -0.0395727C 
13 0.00830467C 
14 0.27211532C 
15 -0.2673626OA
16 -0.1842319N 
17 0.12250420A 
18 -0.2229088NA
19 0.13781982A 
20 -0.1520032NA
21 -0.0102465C 
22 -0.0558113C 
23 -0.0558113C 
24 -0.0367710C 
25 0.01165101C 
26 0.16267180C 
27 -0.2941847OA


$$$$
