
     RDKit          3D

 33 36  0  0  0  0  0  0  0  0999 V2000
   -7.1893    3.1899    0.6313 C   0  0  0  0  0  0  0  0  0  0  0  0
   -6.8506    2.0404    0.0715 C   0  0  0  0  0  0  0  0  0  0  0  0
   -5.6585    1.3484    0.5748 C   0  0  0  0  0  0  0  0  0  0  0  0
   -4.9707    1.8326    1.5168 O   0  0  0  0  0  0  0  0  0  0  0  0
   -5.2294    0.1434    0.0508 O   0  0  0  0  0  0  0  0  0  0  0  0
   -4.0601   -0.5250    0.5521 C   0  0  1  0  0  0  0  0  0  0  0  0
   -3.9114   -1.7694   -0.2393 C   0  0  0  0  0  0  0  0  0  0  0  0
   -2.5383   -2.2649   -0.4448 C   0  0  1  0  0  0  0  0  0  0  0  0
   -1.8867   -1.8555   -1.7253 C   0  0  0  0  0  0  0  0  0  0  0  0
   -1.6348   -2.1720    0.7569 C   0  0  1  0  0  0  0  0  0  0  0  0
   -0.8775   -3.4152    1.0343 C   0  0  0  0  0  0  0  0  0  0  0  0
    0.1711   -3.7121   -0.0310 C   0  0  0  0  0  0  0  0  0  0  0  0
    1.4907   -3.2563    0.5517 C   0  0  0  0  0  3  0  0  0  0  0  0
    1.4269   -1.7846    0.7227 C   0  0  0  0  0  0  0  0  0  0  0  0
    2.5778   -1.2262    0.3003 C   0  0  0  0  0  0  0  0  0  0  0  0
    2.7332    0.2215    0.3781 C   0  0  0  0  0  0  0  0  0  0  0  0
    3.8182    0.8179   -0.0132 C   0  0  0  0  0  0  0  0  0  0  0  0
    3.8949    2.2967    0.1002 C   0  0  0  0  0  0  0  0  0  0  0  0
    5.2632    2.7665   -0.2902 C   0  0  1  0  0  0  0  0  0  0  0  0
    5.5589    4.1576    0.2569 C   0  0  0  0  0  0  0  0  0  0  0  0
    6.3191    1.8449    0.2768 C   0  0  0  0  0  0  0  0  0  0  0  0
    6.3283    0.5100   -0.4327 C   0  0  2  0  0  0  0  0  0  0  0  0
    6.9457    0.6206   -1.6760 O   0  0  0  0  0  0  0  0  0  0  0  0
    4.9297    0.0238   -0.5521 C   0  0  0  0  0  0  0  0  0  0  0  0
    4.6118   -1.1147   -1.1310 C   0  0  0  0  0  0  0  0  0  0  0  0
    0.4607   -0.8138    1.2219 C   0  0  1  0  0  0  0  0  0  0  0  0
    0.5540    0.4242    0.3018 C   0  0  0  0  0  0  0  0  0  0  0  0
   -0.4503   -0.3445   -0.5778 C   0  0  0  0  0  0  0  0  0  0  0  0
   -0.9282   -0.9088    0.7681 C   0  0  1  0  0  0  0  0  0  0  0  0
   -1.7997    0.1471    1.4220 C   0  0  0  0  0  0  0  0  0  0  0  0
   -2.9263    0.4284    0.4827 C   0  0  1  0  0  0  0  0  0  0  0  0
   -2.5136    0.8379   -0.8885 C   0  0  0  0  0  0  0  0  0  0  0  0
   -3.6588    1.5110   -1.6079 C   0  0  0  0  0  2  0  0  0  0  0  0
  1  2  2  0
  2  3  1  0
  3  4  2  0
  3  5  1  0
  6  5  1  6
  6  7  1  0
  7  8  1  0
  8  9  1  6
  8 10  1  0
 10 11  1  6
 11 12  1  0
 12 13  1  0
 13 14  1  0
 14 15  2  0
 15 16  1  0
 16 17  2  0
 17 18  1  0
 18 19  1  0
 19 20  1  1
 19 21  1  0
 21 22  1  0
 22 23  1  6
 22 24  1  0
 24 25  2  0
 14 26  1  0
 26 27  1  6
 27 28  1  0
 29 28  1  6
 29 30  1  0
  6 31  1  0
 31 32  1  6
 32 33  1  0
 29 10  1  0
 24 17  1  0
 29 26  1  0
 31 30  1  0
M  RAD  2  13   2  33   3
M  END
>  <fragInfo>  (1) 
6 7 8 9 10 11 12 13 14 15 26 27 28 29 30 31
1 2
3 4
5
16 17 18 19 20 21 22 23 24 25
32 33


>  <torsionInfo>  (1) 
5 6 3 0
15 16 0 4
31 32 0 5
2 3 1 2
3 5 2 3


>  <atomInfo>  (1) 
1  -0.0918441C 
2  0.01605705C 
3  0.32992488C 
4  -0.2469395OA
5  -0.4589270OA
6  0.10521994C 
7  -0.0126021C 
8  -0.0373541C 
9  -0.0620865C 
10 -0.0324242C 
11 -0.0490456C 
12 -0.0458014C 
13 -0.0131131C 
14 -0.0628375C 
15 -0.0621755C 
16 -0.0587069C 
17 -0.0425425C 
18 -0.0248435C 
19 -0.0374185C 
20 -0.0620837C 
21 -0.0198708C 
22 0.07892121C 
23 -0.3884223OA
24 -0.0235643C 
25 -0.0929557C 
26 -0.0137368C 
27 -0.0455671C 
28 -0.0461424C 
29 -0.0196666C 
30 -0.0403461C 
31 -0.0032025C 
32 -0.0434846C 
33 -0.0347661C 


$$$$
