
     RDKit          3D

 51 52  0  0  0  0  0  0  0  0999 V2000
   -1.3467   -1.8915    0.1779 C   0  0  0  0  0  0  0  0  0  0  0  0
   -2.4863   -2.2034    0.9629 O   0  0  0  0  0  0  0  0  0  0  0  0
   -3.4177   -2.9244    0.2231 C   0  0  0  0  0  3  0  0  0  0  0  0
   -3.9020   -2.2056   -0.8479 O   0  0  0  0  0  0  0  0  0  0  0  0
   -4.9403   -1.3352   -0.4765 C   0  0  2  0  0  0  0  0  0  0  0  0
   -4.5392   -0.6868    0.8543 C   0  0  0  0  0  0  0  0  0  0  0  0
   -6.2367   -2.1060   -0.2847 C   0  0  0  0  0  3  0  0  0  0  0  0
   -7.4393   -1.1894   -0.3839 C   0  0  1  0  0  0  0  0  0  0  0  0
   -8.6284   -1.9984   -0.0460 N   0  0  0  0  0  0  0  0  0  0  0  0
   -9.5379   -1.1522    0.7022 C   0  0  0  0  0  3  0  0  0  0  0  0
  -10.1462   -0.0926   -0.2138 C   0  0  2  0  0  0  0  0  0  0  0  0
  -10.9831    0.9745    0.4205 C   0  0  0  0  0  0  0  0  0  0  0  0
  -11.5746   -0.1401   -0.1766 O   0  0  0  0  0  0  0  0  0  0  0  0
   -7.4143   -0.1599    0.5359 O   0  0  0  0  0  0  0  0  0  0  0  0
   -6.7363    0.9598    0.1206 C   0  0  0  0  0  0  0  0  0  0  0  0
   -7.5745    2.0125   -0.5248 C   0  0  0  0  0  0  0  0  0  0  0  0
   -7.0309    3.2539   -0.2482 O   0  0  0  0  0  0  0  0  0  0  0  0
   -6.7186    3.2734    1.1179 C   0  0  2  0  0  0  0  0  0  0  0  0
   -7.7580    4.0936    1.8306 C   0  0  0  0  0  0  0  0  0  0  0  0
   -5.4180    3.6998    1.3607 O   0  0  0  0  0  0  0  0  0  0  0  0
   -4.9431    4.4962    0.3384 C   0  0  0  0  0  3  0  0  0  0  0  0
   -3.4839    4.2023    0.0159 C   0  0  0  0  0  0  0  0  0  0  0  0
   -3.2010    2.7315   -0.0384 C   0  0  0  0  0  3  0  0  0  0  0  0
   -2.6490    2.2121    1.1961 C   0  0  0  0  0  0  0  0  0  0  0  0
   -1.7094    1.3660    1.4519 C   0  0  0  0  0  0  0  0  0  0  0  0
   -0.9032    0.6658    0.3832 C   0  0  0  0  0  3  0  0  0  0  0  0
   -1.7943    0.3499   -0.8070 C   0  0  0  0  0  0  0  0  0  0  0  0
   -1.7793   -1.1627   -1.0811 C   0  0  1  0  0  0  0  0  0  0  0  0
   -0.8430   -1.4424   -2.2564 C   0  0  0  0  0  0  0  0  0  0  0  0
    0.3936   -0.9598   -1.8439 O   0  0  0  0  0  0  0  0  0  0  0  0
    0.7669   -1.6846   -0.6832 C   0  0  0  0  0  0  0  0  0  0  0  0
    2.0602   -1.0751   -0.1701 C   0  0  2  0  0  0  0  0  0  0  0  0
    3.0743   -1.1964   -1.3115 C   0  0  0  0  0  0  0  0  0  0  0  0
    2.5710   -1.9299    1.0037 C   0  0  0  0  0  0  0  0  0  0  0  0
    3.7650   -1.3340    1.4714 O   0  0  0  0  0  0  0  0  0  0  0  0
    4.6946   -1.2831    0.4477 C   0  0  2  0  0  0  0  0  0  0  0  0
    5.1364   -2.6197   -0.0145 C   0  0  0  0  0  0  0  0  0  0  0  0
    5.7635   -0.2837    0.6933 C   0  0  0  0  0  3  0  0  0  0  0  0
    6.3205    0.0589   -0.5495 O   0  0  0  0  0  0  0  0  0  0  0  0
    7.1094   -0.9010   -0.9296 O   0  0  0  0  0  0  0  0  0  0  0  0
    7.5677   -1.5168    0.1335 O   0  0  0  0  0  0  0  0  0  0  0  0
    8.5298   -2.4496   -0.1514 C   0  0  2  0  0  0  0  0  0  0  0  0
    8.9738   -3.0740    1.1307 C   0  0  0  0  0  0  0  0  0  0  0  0
    9.6294   -1.8484   -0.9705 C   0  0  0  0  0  0  0  0  0  0  0  0
   10.3228   -0.6862   -0.2793 C   0  0  0  0  0  0  0  0  0  0  0  0
    9.3815    0.3317   -0.0160 O   0  0  0  0  0  0  0  0  0  0  0  0
    9.9765    1.4242    0.5994 C   0  0  0  0  0  3  0  0  0  0  0  0
   10.8014    2.0814   -0.3070 O   0  0  0  0  0  0  0  0  0  0  0  0
   12.0224    1.4030   -0.4938 C   0  0  0  0  0  0  0  0  0  0  0  0
   12.7006    1.3466    0.8596 C   0  0  0  0  0  3  0  0  0  0  0  0
   13.5740    2.5957    1.0332 C   0  0  0  0  0  2  0  0  0  0  0  0
  1  2  1  0
  2  3  1  0
  3  4  1  0
  4  5  1  0
  5  6  1  1
  5  7  1  0
  7  8  1  0
  8  9  1  1
  9 10  1  0
 11 10  1  1
 11 12  1  0
 11 13  1  0
  8 14  1  0
 14 15  1  0
 15 16  1  0
 16 17  1  0
 17 18  1  0
 18 19  1  1
 18 20  1  0
 20 21  1  0
 21 22  1  0
 22 23  1  0
 23 24  1  0
 24 25  2  3
 25 26  1  0
 26 27  1  0
 27 28  1  0
 28 29  1  6
 29 30  1  0
 30 31  1  0
 31 32  1  0
 32 33  1  6
 32 34  1  0
 34 35  1  0
 35 36  1  0
 36 37  1  1
 36 38  1  0
 38 39  1  0
 39 40  1  0
 40 41  1  0
 41 42  1  0
 42 43  1  1
 42 44  1  0
 44 45  1  0
 45 46  1  0
 46 47  1  0
 47 48  1  0
 48 49  1  0
 49 50  1  0
 50 51  1  0
 28  1  1  0
 13 12  1  0
M  RAD  8   3   2   7   2  10   2  21   2  23   2  26   2  38   2  47   2
M  RAD  2  50   2  51   3
M  END
>  <fragInfo>  (1) 
1 2 3 4 5 6 7 8 14 15 16 17 18 19 20 21 22 23 24 25 26 27 28
9
10
11 12 13
29
30
31
32 33
34
35
36 37
38
39
40
41
42 43
44
45
46
47
48
49
50 51


>  <torsionInfo>  (1) 
8 9 0 1
28 29 0 4
9 10 1 2
10 11 2 3
29 30 4 5
30 31 5 6
31 32 6 7
32 34 7 8
34 35 8 9
35 36 9 10
36 38 10 11
38 39 11 12
39 40 12 13
40 41 13 14
41 42 14 15
42 44 15 16
44 45 16 17
45 46 17 18
46 47 18 19
47 48 19 20
48 49 20 21
49 50 21 22


>  <atomInfo>  (1) 
1  0.05500059C 
2  -0.3475862OA
3  0.20922679C 
4  -0.3444498OA
5  0.06517450C 
6  -0.0381069C 
7  0.03375923C 
8  0.11393961C 
9  -0.2846494NA
10 0.05567363C 
11 0.09789878C 
12 0.07501877C 
13 -0.3713625OA
14 -0.3605508OA
15 0.07223634C 
16 0.07323515C 
17 -0.3505624OA
18 0.15491486C 
19 -0.0134403C 
20 -0.3470201OA
21 0.08749698C 
22 -0.0171477C 
23 -0.0143764C 
24 -0.0844318C 
25 -0.0845182C 
26 -0.0165938C 
27 -0.0391262C 
28 0.00638556C 
29 0.05161827C 
30 -0.3807055OA
31 0.05132880C 
32 0.00286129C 
33 -0.0580889C 
34 0.05181596C 
35 -0.3751992OA
36 0.08697165C 
37 -0.0358647C 
38 0.15369790C 
39 -0.1970493OA
40 -0.0673553OA
41 -0.2030373OA
42 0.09548491C 
43 -0.0352755C 
44 4.84903475C 
45 0.05253812C 
46 -0.3478737OA
47 0.20895096C 
48 -0.3476616OA
49 0.05342520C 
50 -0.0089887C 
51 -0.0290432C 


$$$$
