
     RDKit          3D

 20 21  0  0  0  0  0  0  0  0999 V2000
   -7.3780   -0.2270    1.6331 C   0  0  0  0  0  0  0  0  0  0  0  0
   -6.0597   -0.6245    1.0042 C   0  0  1  0  0  0  0  0  0  0  0  0
   -6.2588   -1.6774   -0.0675 C   0  0  0  0  0  0  0  0  0  0  0  0
   -5.2292   -0.8583   -0.8206 C   0  0  0  0  0  0  0  0  0  0  0  0
   -5.6868    0.2984   -0.0532 N   0  0  0  0  0  0  0  0  0  0  0  0
   -4.6345    1.2272    0.3125 C   0  0  0  0  0  0  0  0  0  0  0  0
   -3.6992    0.6658    1.2910 C   0  0  0  0  0  0  0  0  0  0  0  0
   -2.4044    0.4994    1.1218 C   0  0  0  0  0  0  0  0  0  0  0  0
   -1.7286    0.8662   -0.0989 C   0  0  0  0  0  0  0  0  0  0  0  0
   -0.4253    0.6912   -0.2504 C   0  0  0  0  0  0  0  0  0  0  0  0
    0.7800    0.7543   -0.9505 C   0  0  0  0  0  0  0  0  0  0  0  0
    0.8168    0.2449    0.2952 C   0  0  0  0  0  0  0  0  0  0  0  0
    1.5609   -0.3514    1.4364 C   0  0  0  0  0  0  0  0  0  0  0  0
    2.9854   -0.4813    1.1059 C   0  0  0  0  0  0  0  0  0  0  0  0
    3.5163   -0.1100   -0.0759 C   0  0  0  0  0  0  0  0  0  0  0  0
    4.9815   -0.2842   -0.3128 C   0  0  0  0  0  0  0  0  0  0  0  0
    5.5759    1.0820   -0.5895 C   0  0  0  0  0  0  0  0  0  0  0  0
    7.0660    0.9603   -0.8342 C   0  0  0  0  0  0  0  0  0  0  0  0
    7.3859    0.0742   -2.0087 C   0  0  0  0  0  0  0  0  0  0  0  0
    8.8358    0.0416   -2.1378 N   0  0  0  0  0  0  0  0  0  0  0  0
  2  1  1  6
  2  3  1  0
  3  4  1  0
  4  5  1  0
  5  6  1  0
  6  7  1  0
  7  8  2  3
  8  9  1  0
  9 10  2  3
 10 11  1  0
 11 12  2  0
 12 13  1  0
 13 14  1  0
 14 15  2  3
 15 16  1  0
 16 17  1  0
 17 18  1  0
 18 19  1  0
 19 20  1  0
  5  2  1  0
 12 10  1  0
M  END
>  <fragInfo>  (1) 
1 2 3 4 5
6
7 8
9 10 11 12
13
14 15
16
17
18
19 20


>  <torsionInfo>  (1) 
5 6 0 1
6 7 1 2
8 9 2 3
12 13 3 4
13 14 4 5
15 16 5 6
16 17 6 7
17 18 7 8
18 19 8 9


>  <atomInfo>  (1) 
1  -0.0494774C 
2  0.00823715C 
3  -0.0249107C 
4  0.00022112C 
5  -0.2968957NA
6  0.01686033C 
7  -0.0704758C 
8  -0.0643926C 
9  -0.0549550C 
10 -0.0218207C 
11 -0.0505608C 
12 -0.0363747C 
13 -0.0091294C 
14 -0.0841138C 
15 -0.0882042C 
16 -0.0350148C 
17 -0.0486242C 
18 -0.0405980C 
19 -0.0077165C 
20 -0.3304733NA


$$$$
