
     RDKit          3D

 31 30  0  0  0  0  0  0  0  0999 V2000
   -8.0777    2.2753   -1.3736 C   0  0  0  0  0  0  0  0  0  0  0  0
   -7.3037    2.0175   -0.1670 C   0  0  0  0  0  0  0  0  0  0  0  0
   -6.6596    2.9171    0.3819 O   0  0  0  0  0  0  0  0  0  0  0  0
   -7.2850    0.7273    0.3077 O   0  0  0  0  0  0  0  0  0  0  0  0
   -6.3742    0.3753    1.3713 C   0  0  0  0  0  2  0  0  0  0  0  0
   -6.0137   -1.1246    1.1408 C   0  0  0  0  0  0  0  0  0  0  0  0
   -5.4994   -1.2398   -0.2675 C   0  0  0  0  0  3  0  0  0  0  0  0
   -6.3555   -0.8913   -1.3370 C   0  0  0  0  0  0  0  0  0  0  0  0
   -6.5828   -1.3152   -2.4181 O   0  0  0  0  0  0  0  0  0  0  0  0
   -4.4436   -2.2728   -0.4088 C   0  0  0  0  0  0  0  0  0  0  0  0
   -3.3330   -1.6797   -1.3230 C   0  0  0  0  0  3  0  0  0  0  0  0
   -3.0427   -0.3565   -0.6849 C   0  0  0  0  0  0  0  0  0  0  0  0
   -1.8601    0.3204   -1.2166 C   0  0  0  0  0  0  0  0  0  0  0  0
   -0.5929   -0.5632   -0.9507 C   0  0  2  0  0  0  0  0  0  0  0  0
   -0.6912   -0.9726    0.5157 C   0  0  0  0  0  0  0  0  0  0  0  0
    0.3850    0.5175   -0.9184 O   0  0  0  0  0  0  0  0  0  0  0  0
    0.8896    0.5694    0.2547 C   0  0  0  0  0  3  0  0  0  0  0  0
    2.0423    0.0959    0.8587 C   0  0  1  0  0  0  0  0  0  0  0  0
    2.2998   -1.2786    0.9858 O   0  0  0  0  0  0  0  0  0  0  0  0
    3.3043    0.7487    0.2795 C   0  0  0  0  0  0  0  0  0  0  0  0
    3.6339    0.1990   -0.9583 O   0  0  0  0  0  0  0  0  0  0  0  0
    3.7868   -1.2189   -0.8503 C   0  0  0  0  0  0  0  0  0  0  0  0
    4.8568   -1.5074    0.2461 C   0  0  0  0  0  3  0  0  0  0  0  0
    4.9735   -3.0138    0.3943 C   0  0  0  0  0  0  0  0  0  0  0  0
    6.0848   -0.8451   -0.2925 C   0  0  0  0  0  0  0  0  0  0  0  0
    5.7440    0.5868   -0.7136 C   0  0  0  0  0  0  0  0  0  0  0  0
    7.0422    1.2929   -1.2464 C   0  0  0  0  0  0  0  0  0  0  0  0
    7.8871    1.2535    0.0287 C   0  0  2  0  0  0  0  0  0  0  0  0
    8.2399   -0.1495    0.4374 C   0  0  0  0  0  1  0  0  0  0  0  0
    6.8158    1.7270    1.0792 C   0  0  0  0  0  3  0  0  0  0  0  0
    6.1294    2.8056    0.5989 O   0  0  0  0  0  0  0  0  0  0  0  0
  1  2  1  0
  2  3  2  0
  2  4  1  0
  4  5  1  0
  5  6  1  0
  6  7  1  0
  7  8  1  0
  8  9  2  0
  7 10  1  0
 10 11  1  0
 11 12  1  0
 12 13  1  0
 13 14  1  0
 14 15  1  1
 14 16  1  0
 16 17  1  0
 17 18  1  0
 18 19  1  6
 18 20  1  0
 20 21  1  0
 21 22  1  0
 22 23  1  0
 23 24  1  0
 23 25  1  0
 25 26  1  0
 26 27  1  0
 27 28  1  0
 28 29  1  1
 28 30  1  0
 30 31  1  0
M  RAD  7   5   3   7   2  11   2  17   2  23   2  29   2  30   2
M  END
>  <fragInfo>  (1) 
1 2 3
4
5
6
7
8 9
10
11
12
13
14 15
16
17
18 19
20
21
22
23 24
25
26
27
28 29
30 31


>  <torsionInfo>  (1) 
2 4 0 1
4 5 1 2
5 6 2 3
6 7 3 4
7 8 4 5
7 10 4 6
10 11 6 7
11 12 7 8
12 13 8 9
13 14 9 10
14 16 10 11
16 17 11 12
17 18 12 13
18 20 13 14
20 21 14 15
21 22 15 16
22 23 16 17
23 25 17 18
25 26 18 19
26 27 19 20
27 28 20 21
28 30 21 22


>  <atomInfo>  (1) 
1  0.03397385C 
2  0.30298230C 
3  -0.2526053OA
4  -0.4502433OA
5  0.20010247C 
6  0.00887291C 
7  0.04271621C 
8  0.12680698C 
9  -0.3027330OA
10 -0.0366716C 
11 -0.0374733C 
12 -0.0476910C 
13 -0.0267134C 
14 0.05531675C 
15 -0.0386594C 
16 -0.3696607OA
17 0.11471039C 
18 0.10609461C 
19 -0.3878929OA
20 0.07525811C 
21 -0.3780695OA
22 0.05267073C 
23 -0.0015303C 
24 -0.0568232C 
25 -0.0450345C 
26 -0.0522975C 
27 -0.0472578C 
28 -0.0052721C 
29 -0.0028129C 
30 0.08355957C 
31 -0.3901097OA


$$$$
