
     RDKit          3D

 26 26  0  0  0  0  0  0  0  0999 V2000
    5.4071    2.5362    0.2968 C   0  0  0  0  0  0  0  0  0  0  0  0
    6.2523    1.3964    0.3353 O   0  0  0  0  0  0  0  0  0  0  0  0
    5.9998    0.7107   -0.7077 C   0  0  0  0  0  3  0  0  0  0  0  0
    4.7513    0.1327   -1.0165 O   0  0  0  0  0  0  0  0  0  0  0  0
    4.4111   -0.5646    0.2716 C   0  0  2  0  0  0  0  0  0  0  0  0
    5.6176   -1.5808    0.3118 C   0  0  0  0  0  0  0  0  0  0  0  0
    3.3328   -1.5889   -0.6401 C   0  0  0  0  0  3  0  0  0  0  0  0
    1.9615   -0.9991   -0.2239 C   0  0  1  0  0  0  0  0  0  0  0  0
    1.2054   -1.8040    0.7559 C   0  0  0  0  0  3  0  0  0  0  0  0
   -0.0190   -1.0003    0.9946 C   0  0  0  0  0  0  0  0  0  0  0  0
   -1.2177   -0.9955    0.1880 C   0  0  2  0  0  0  0  0  0  0  0  0
   -2.4527   -2.2809    0.4608 S   0  0  0  0  0  0  0  0  0  0  0  0
   -0.7648   -1.1393   -1.2186 O   0  0  0  0  0  0  0  0  0  0  0  0
   -0.5680    0.1360   -1.7055 C   0  0  0  0  0  3  0  0  0  0  0  0
   -0.9430    1.1486   -0.6376 C   0  0  0  0  0  0  0  0  0  0  0  0
   -1.9715    2.0965   -1.2032 C   0  0  0  0  0  0  0  0  0  0  0  0
   -2.6530    2.7951   -0.2221 O   0  0  0  0  0  0  0  0  0  0  0  0
   -4.0241    2.6446   -0.4595 C   0  0  0  0  0  0  0  0  0  0  0  0
   -4.5927    2.0689    0.6655 O   0  0  0  0  0  0  0  0  0  0  0  0
   -5.0335    0.7811    0.4606 C   0  0  0  0  0  3  0  0  0  0  0  0
   -4.0240   -0.1189    0.0689 O   0  0  0  0  0  0  0  0  0  0  0  0
   -4.0018   -1.1771    0.7885 C   0  0  1  0  0  0  0  0  0  0  0  0
   -5.0381   -2.1038    0.9001 O   0  0  0  0  0  0  0  0  0  0  0  0
   -5.7012   -2.0780   -0.3751 C   0  0  0  0  0  2  0  0  0  0  0  0
    2.3724    0.3193    0.1460 O   0  0  0  0  0  0  0  0  0  0  0  0
    1.6940    0.6652    1.3277 C   0  0  0  0  0  2  0  0  0  0  0  0
  1  2  1  0
  2  3  1  0
  3  4  1  0
  4  5  1  0
  5  6  1  6
  5  7  1  0
  8  7  1  1
  8  9  1  0
  9 10  1  0
 11 10  1  1
 11 12  1  0
 11 13  1  0
 13 14  1  0
 14 15  1  0
 15 16  1  0
 16 17  1  0
 17 18  1  0
 18 19  1  0
 19 20  1  0
 20 21  1  0
 21 22  1  0
 22 23  1  6
 23 24  1  0
  8 25  1  0
 25 26  1  0
 22 12  1  0
M  RAD  7   3   2   7   2   9   2  14   2  20   2  24   3  26   3
M  END
>  <fragInfo>  (1) 
11 12 13 14 15 16 17 18 19 20 21 22
1 2
3
4
5 6
7
8
9
10
23 24
25 26


>  <torsionInfo>  (1) 
10 11 8 0
22 23 0 9
2 3 1 2
3 4 2 3
4 5 3 4
5 7 4 5
7 8 5 6
8 9 6 7
8 25 6 10
9 10 7 8


>  <atomInfo>  (1) 
1  0.03885651C 
2  -0.3513313OA
3  0.20894193C 
4  -0.3445141OA
5  0.06381585C 
6  -0.0381619C 
7  0.01931368C 
8  0.06716245C 
9  -0.0058296C 
10 -0.0113062C 
11 0.10843453C 
12 -0.0697721SA
13 -0.3613739OA
14 0.08748554C 
15 -0.0003664C 
16 0.05201021C 
17 -0.3551923OA
18 0.14964626C 
19 -0.3211316OA
20 0.21468238C 
21 -0.3084958OA
22 0.21216480C 
23 -0.3343905OA
24 0.11940924C 
25 -0.3686377OA
26 0.11546932C 


$$$$
