
     RDKit          3D

 25 28  0  0  0  0  0  0  0  0999 V2000
   -1.0919   -1.6830   -1.8651 C   0  0  0  0  0  0  0  0  0  0  0  0
   -1.6092   -2.2207   -0.6283 O   0  0  0  0  0  0  0  0  0  0  0  0
   -2.3140   -1.3374    0.2197 C   0  0  0  0  0  0  0  0  0  0  0  0
   -3.0548   -1.7174    1.3028 C   0  0  0  0  0  0  0  0  0  0  0  0
   -3.7276   -0.8077    2.1025 C   0  0  0  0  0  0  0  0  0  0  0  0
   -3.6301    0.5517    1.7679 C   0  0  0  0  0  0  0  0  0  0  0  0
   -2.8991    0.9546    0.6953 C   0  0  0  0  0  0  0  0  0  0  0  0
   -2.2666    0.0088   -0.0436 C   0  0  0  0  0  0  0  0  0  0  0  0
   -2.7370    2.3568    0.2760 C   0  0  0  0  0  0  0  0  0  0  0  0
   -1.3629    2.4430   -0.3685 C   0  0  2  0  0  0  0  0  0  0  0  0
   -1.4261    2.3803   -1.7948 N   0  0  0  0  0  0  0  0  0  0  0  0
   -1.1825    1.0725   -2.3156 C   0  0  0  0  0  0  0  0  0  0  0  0
    0.0097    0.4470   -1.7743 C   0  0  0  0  0  0  0  0  0  0  0  0
    0.1470   -0.8489   -1.5273 C   0  0  0  0  0  0  0  0  0  0  0  0
    1.2797   -1.5013   -1.0301 C   0  0  0  0  0  0  0  0  0  0  0  0
    2.3749   -1.3218   -0.4173 C   0  0  0  0  0  0  0  0  0  0  0  0
    3.2923   -2.4683   -0.1178 C   0  0  0  0  0  0  0  0  0  0  0  0
    4.4532   -2.3583    0.4457 C   0  0  0  0  0  0  0  0  0  0  0  0
    4.9642   -1.0629    0.8514 C   0  0  0  0  0  0  0  0  0  0  0  0
    4.1954   -0.0279    0.6323 C   0  0  0  0  0  0  0  0  0  0  0  0
    2.8646   -0.0037    0.0300 C   0  0  2  0  0  0  0  0  0  0  0  0
    1.9361    0.4769    1.1803 C   0  0  0  0  0  0  0  0  0  0  0  0
    1.0851    1.9182    0.5062 S   0  0  0  0  0  0  0  0  0  0  0  0
    1.1297    3.2930    1.6697 C   0  0  0  0  0  0  0  0  0  0  0  0
   -0.4300    1.4565    0.2028 C   0  0  0  0  0  0  0  0  0  0  0  0
  1  2  1  0
  2  3  1  0
  3  4  2  0
  4  5  1  0
  5  6  2  0
  6  7  1  0
  7  8  2  0
  7  9  1  0
 10  9  1  1
 10 11  1  0
 11 12  1  0
 12 13  1  0
 13 14  2  3
 14 15  1  0
 15 16  2  3
 16 17  1  0
 17 18  2  0
 18 19  1  0
 19 20  2  0
 20 21  1  0
 21 22  1  1
 22 23  1  0
 23 24  1  1
 23 25  2  3
 14  1  1  0
  8  3  1  0
 25 10  1  0
 21 16  1  0
M  END
>  <fragInfo>  (1) 
1 2 3 4 5 6 7 8 9 10 11 12 13 14 15 16 17 18 19 20 21 22 23 24 25


>  <torsionInfo>  (1) 


>  <atomInfo>  (1) 
1  0.11305287C 
2  -0.4889178OA
3  0.11958637A 
4  -0.0199281A 
5  -0.0583095A 
6  -0.0587038A 
7  -0.0424520A 
8  -0.0166617A 
9  -0.0081652C 
10 0.03463601C 
11 -0.3062442NA
12 0.01473012C 
13 -0.0640757C 
14 -0.0131967C 
15 -0.0520522C 
16 -0.0399205C 
17 -0.0584135C 
18 -0.0622661C 
19 -0.0656200C 
20 -0.0761992C 
21 0.01071741C 
22 -0.0018162C 
23 -0.1904724S 
24 -0.0235845C 
25 -0.0440238C 


$$$$
