
     RDKit          3D

 42 42  0  0  0  0  0  0  0  0999 V2000
    5.4866    0.5269    0.2119 O   0  0  0  0  0  0  0  0  0  0  0  0
    5.5716   -0.1159    1.4384 C   0  0  0  0  0  0  0  0  0  0  0  0
    6.8799    0.2847    2.1081 C   0  0  0  0  0  3  0  0  0  0  0  0
    7.9129   -0.6900    1.8209 N   0  0  0  0  0  0  0  0  0  0  0  0
    8.5832   -0.2712    0.6158 C   0  0  2  0  0  0  0  0  0  0  0  0
    8.2339    1.1422    0.2210 C   0  0  0  0  0  0  0  0  0  0  0  0
    9.1212    2.0557    0.7787 O   0  0  0  0  0  0  0  0  0  0  0  0
    8.2187   -1.1789   -0.5284 C   0  0  1  0  0  0  0  0  0  0  0  0
    7.2144   -2.0714   -0.1982 O   0  0  0  0  0  0  0  0  0  0  0  0
    7.8740   -0.3913   -1.7719 C   0  0  2  0  0  0  0  0  0  0  0  0
    8.8872    0.5530   -1.9876 O   0  0  0  0  0  0  0  0  0  0  0  0
    6.6751    0.2894   -1.6676 O   0  0  0  0  0  0  0  0  0  0  0  0
    5.7449   -0.3425   -0.8596 C   0  0  2  0  0  0  0  0  0  0  0  0
    4.5398   -0.4566   -1.5701 O   0  0  0  0  0  0  0  0  0  0  0  0
    4.3025    0.7191   -2.1120 O   0  0  0  0  0  0  0  0  0  0  0  0
    3.1851    1.2440   -1.6835 O   0  0  0  0  0  0  0  0  0  0  0  0
    2.8104    0.7650   -0.4406 C   0  0  0  0  0  3  0  0  0  0  0  0
    2.6123   -0.6210   -0.5114 O   0  0  0  0  0  0  0  0  0  0  0  0
    1.4633   -1.0129    0.1737 C   0  0  2  0  0  0  0  0  0  0  0  0
    0.8083   -2.0127   -0.5233 O   0  0  0  0  0  0  0  0  0  0  0  0
    0.6711    0.1137    0.3266 O   0  0  0  0  0  0  0  0  0  0  0  0
   -0.5899   -0.1013    0.0640 O   0  0  0  0  0  0  0  0  0  0  0  0
   -0.7662   -0.6337   -1.1353 O   0  0  0  0  0  0  0  0  0  0  0  0
   -2.1440   -0.6760   -1.3727 C   0  0  0  0  0  0  0  0  0  0  0  0
   -2.5909    0.6506   -1.3645 O   0  0  0  0  0  0  0  0  0  0  0  0
   -3.6426    0.7254   -0.5932 O   0  0  0  0  0  0  0  0  0  0  0  0
   -3.3182    0.9279    0.6657 O   0  0  0  0  0  0  0  0  0  0  0  0
   -4.4603    0.7905    1.4416 C   0  0  0  0  0  3  0  0  0  0  0  0
   -5.2133   -0.3031    1.0055 O   0  0  0  0  0  0  0  0  0  0  0  0
   -6.5566    0.0319    1.0150 C   0  0  1  0  0  0  0  0  0  0  0  0
   -7.3363   -1.1273    0.4376 C   0  0  1  0  0  0  0  0  0  0  0  0
   -8.6704   -0.7133    0.3497 O   0  0  0  0  0  0  0  0  0  0  0  0
   -6.8165   -1.3636   -0.9592 C   0  0  0  0  0  0  0  0  0  0  0  0
   -6.5891   -0.1100   -1.5279 O   0  0  0  0  0  0  0  0  0  0  0  0
   -5.6211   -0.1953   -2.4113 O   0  0  0  0  0  0  0  0  0  0  0  0
   -6.1470   -0.4191   -3.6870 C   0  0  0  0  0  3  0  0  0  0  0  0
   -7.5442   -0.3928   -3.6123 O   0  0  0  0  0  0  0  0  0  0  0  0
   -7.0033    0.3909    2.2804 O   0  0  0  0  0  0  0  0  0  0  0  0
   -6.8063   -0.5762    3.1507 O   0  0  0  0  0  0  0  0  0  0  0  0
   -7.2071   -0.0979    4.3999 C   0  0  0  0  0  3  0  0  0  0  0  0
   -8.5909   -0.2222    4.5834 O   0  0  0  0  0  0  0  0  0  0  0  0
   -9.1822   -0.4052    3.4291 O   0  0  0  0  0  0  0  0  0  0  0  0
  1  2  1  0
  2  3  1  0
  3  4  1  0
  4  5  1  0
  5  6  1  6
  6  7  1  0
  5  8  1  0
  8  9  1  1
  8 10  1  0
 10 11  1  1
 10 12  1  0
 12 13  1  0
 13 14  1  6
 14 15  1  0
 15 16  1  0
 16 17  1  0
 17 18  1  0
 18 19  1  0
 19 20  1  6
 19 21  1  0
 21 22  1  0
 22 23  1  0
 23 24  1  0
 24 25  1  0
 25 26  1  0
 26 27  1  0
 27 28  1  0
 28 29  1  0
 30 29  1  1
 30 31  1  0
 31 32  1  6
 31 33  1  0
 33 34  1  0
 34 35  1  0
 35 36  1  0
 36 37  1  0
 30 38  1  0
 38 39  1  0
 39 40  1  0
 40 41  1  0
 41 42  1  0
 13  1  1  0
M  RAD  5   3   2  17   2  28   2  36   2  40   2
M  END
>  <fragInfo>  (1) 
1 2 3 4 5 8 9 10 11 12 13
6 7
14
15
16
17
18
19 20
21
22
23
24
25
26
27
28
29
30
31 32
33
34
35
36 37
38
39
40
41 42


>  <torsionInfo>  (1) 
5 6 0 1
13 14 0 2
14 15 2 3
15 16 3 4
16 17 4 5
17 18 5 6
18 19 6 7
19 21 7 8
21 22 8 9
22 23 9 10
23 24 10 11
24 25 11 12
25 26 12 13
26 27 13 14
27 28 14 15
28 29 15 16
29 30 16 17
30 31 17 18
30 38 17 23
31 33 18 19
33 34 19 20
34 35 20 21
35 36 21 22
38 39 23 24
39 40 24 25
40 41 25 26


>  <atomInfo>  (1) 
1  -0.3262523OA
2  0.06922791C 
3  0.04859372C 
4  -0.3027839NA
5  0.06164540C 
6  0.06116350C 
7  -0.3946470OA
8  0.12232198C 
9  -0.3860926OA
10 0.18763291C 
11 -0.3656188OA
12 -0.2955254OA
13 0.30631130C 
14 -0.1437974OA
15 -0.0599886OA
16 -0.1678228OA
17 0.25295866C 
18 -0.2894647OA
19 0.30397398C 
20 -0.3438237OA
21 -0.1440271OA
22 -0.0603950OA
23 -0.1738505OA
24 0.22043814C 
25 -0.1739303OA
26 -0.0626191OA
27 -0.1679871OA
28 0.25116090C 
29 -0.3097753OA
30 0.22219546C 
31 0.13434285C 
32 -0.3851399OA
33 0.11336366C 
34 -0.2308849OA
35 -0.1988219OA
36 0.24277523C 
37 -0.3616911OA
38 -0.1984116OA
39 -0.1926144OA
40 0.27967249C 
41 -0.1981215OA
42 -0.2488104OA


$$$$
