
     RDKit          3D

 13 13  0  0  0  0  0  0  0  0999 V2000
    0.2135   -1.2271    0.6116 C   0  0  0  0  0  0  0  0  0  0  0  0
   -1.1678   -1.8026    0.7726 C   0  0  0  0  0  2  0  0  0  0  0  0
   -2.0806   -0.6264    1.1484 C   0  0  0  0  0  0  0  0  0  0  0  0
   -1.5782    0.5436    0.2882 C   0  0  2  0  0  0  0  0  0  0  0  0
   -2.6751    1.5788    0.3703 C   0  0  0  0  0  0  0  0  0  0  0  0
   -3.8487    1.2114    0.2128 O   0  0  0  0  0  0  0  0  0  0  0  0
   -1.5365    0.0535   -1.1120 C   0  0  0  0  0  0  0  0  0  0  0  0
   -0.3537   -0.3728   -1.5850 O   0  0  0  0  0  0  0  0  0  0  0  0
    0.5819   -0.8322   -0.7507 C   0  0  1  0  0  0  0  0  0  0  0  0
    1.7575    0.1213   -0.7063 C   0  0  0  0  0  0  0  0  0  0  0  0
    2.9069   -0.5864   -0.0467 C   0  0  0  0  0  0  0  0  0  0  0  0
    4.1044    0.3714    0.0038 C   0  0  0  0  0  0  0  0  0  0  0  0
    3.6763    1.5675    0.8013 C   0  0  0  0  0  0  0  0  0  0  0  0
  1  2  1  0
  2  3  1  0
  3  4  1  0
  4  5  1  6
  5  6  2  0
  4  7  1  0
  7  8  1  0
  8  9  1  0
  9 10  1  1
 10 11  1  0
 11 12  1  0
 12 13  1  0
  9  1  1  0
M  RAD  1   2   3
M  END
>  <fragInfo>  (1) 
1 2 3 4 7 8 9
5 6
10
11
12 13


>  <torsionInfo>  (1) 
4 5 0 1
9 10 0 2
10 11 2 3
11 12 3 4


>  <atomInfo>  (1) 
1  -0.0199082C 
2  -0.0138765C 
3  -0.0346373C 
4  0.03859230C 
5  0.12489390C 
6  -0.3029934OA
7  0.05641205C 
8  -0.3774635OA
9  0.05807511C 
10 -0.0267213C 
11 -0.0511002C 
12 -0.0560766C 
13 -0.0653807C 


$$$$
