
     RDKit          3D

 23 24  0  0  0  0  0  0  0  0999 V2000
    2.7966   -2.6357   -0.1549 C   0  0  0  0  0  0  0  0  0  0  0  0
    2.0263   -1.6649    0.7472 C   0  0  1  0  0  0  0  0  0  0  0  0
    3.0627   -1.0955    1.7024 C   0  0  0  0  0  0  0  0  0  0  0  0
    3.6121    0.1997    1.1330 C   0  0  2  0  0  0  0  0  0  0  0  0
    2.8443    1.2996    1.4759 O   0  0  0  0  0  0  0  0  0  0  0  0
    3.8594    0.1001   -0.3597 C   0  0  2  0  0  0  0  0  0  0  0  0
    4.3391    1.3500   -0.7639 O   0  0  0  0  0  0  0  0  0  0  0  0
    2.5569   -0.1252   -1.1187 C   0  0  1  0  0  0  0  0  0  0  0  0
    2.7636   -1.1192   -2.0846 O   0  0  0  0  0  0  0  0  0  0  0  0
    1.5388   -0.5303   -0.1078 C   0  0  1  0  0  0  0  0  0  0  0  0
    0.2140   -0.7064   -0.6214 N   0  0  0  0  0  0  0  0  0  0  0  0
   -0.7377   -0.1926    0.3588 C   0  0  1  0  0  0  0  0  0  0  0  0
   -1.3196    1.0514   -0.1972 C   0  0  1  0  0  0  0  0  0  0  0  0
   -1.1817    1.0837   -1.7069 C   0  0  0  0  0  0  0  0  0  0  0  0
   -2.7178    1.3726    0.2356 C   0  0  1  0  0  0  0  0  0  0  0  0
   -3.1846    2.4478   -0.4914 O   0  0  0  0  0  0  0  0  0  0  0  0
   -2.5930    3.5182    0.0316 O   0  0  0  0  0  0  0  0  0  0  0  0
   -3.5324    0.0998   -0.0494 C   0  0  2  0  0  0  0  0  0  0  0  0
   -4.8920    0.3214    0.0073 O   0  0  0  0  0  0  0  0  0  0  0  0
   -3.0787   -0.8814    0.9999 C   0  0  2  0  0  0  0  0  0  0  0  0
   -3.2784   -0.2616    2.2435 O   0  0  0  0  0  0  0  0  0  0  0  0
   -1.6368   -1.2158    0.8875 C   0  0  1  0  0  0  0  0  0  0  0  0
   -1.4613   -2.4157    0.1890 O   0  0  0  0  0  0  0  0  0  0  0  0
  2  1  1  6
  2  3  1  0
  3  4  1  0
  4  5  1  6
  4  6  1  0
  6  7  1  6
  6  8  1  0
  8  9  1  6
  8 10  1  0
 10 11  1  6
 12 11  1  6
 12 13  1  0
 13 14  1  6
 13 15  1  0
 15 16  1  6
 16 17  1  0
 15 18  1  0
 18 19  1  1
 18 20  1  0
 20 21  1  1
 20 22  1  0
 22 23  1  6
 10  2  1  0
 22 12  1  0
M  END
>  <fragInfo>  (1) 
1 2 3 4 5 6 7 8 9 10
11
12 13 14 15 18 19 20 21 22 23
16 17


>  <torsionInfo>  (1) 
10 11 0 1
11 12 1 2
15 16 2 3


>  <atomInfo>  (1) 
1  -0.0608233C 
2  -0.0236276C 
3  -0.0201755C 
4  0.08280077C 
5  -0.3903155OA
6  0.10722523C 
7  -0.3876533OA
8  0.09793001C 
9  -0.3886791OA
10 0.03844301C 
11 -0.3052977NA
12 0.04104622C 
13 0.00607703C 
14 -0.0582015C 
15 0.12523054C 
16 -0.2329006OA
17 -0.2514287OA
18 0.11206416C 
19 -0.3874559OA
20 0.10991872C 
21 -0.3875417OA
22 0.09813982C 
23 -0.3886752OA


$$$$
