
     RDKit          3D

 20 19  0  0  0  0  0  0  0  0999 V2000
    5.7218    2.3299   -0.4848 C   0  0  0  0  0  0  0  0  0  0  0  0
    4.9335    1.0635   -0.3698 C   0  0  0  0  0  0  0  0  0  0  0  0
    5.8818   -0.0973   -0.6448 C   0  0  0  0  0  0  0  0  0  0  0  0
    4.3591    0.8639    1.0173 C   0  0  0  0  0  0  0  0  0  0  0  0
    3.5767   -0.4286    1.0675 C   0  0  0  0  0  0  0  0  0  0  0  0
    2.4579   -0.3140    0.0375 C   0  0  0  0  0  0  0  0  0  0  0  0
    1.6472   -1.6029    0.0613 C   0  0  1  0  0  0  0  0  0  0  0  0
    2.5606   -2.7473   -0.2803 C   0  0  0  0  0  0  0  0  0  0  0  0
    1.1133   -1.7658    1.4457 C   0  0  0  0  0  3  0  0  0  0  0  0
    0.1229   -0.7198    1.8291 C   0  0  0  0  0  0  0  0  0  0  0  0
   -1.1350   -0.8009    1.0537 C   0  0  0  0  0  0  0  0  0  0  0  0
   -1.0654   -0.6186   -0.4068 C   0  0  2  0  0  0  0  0  0  0  0  0
   -0.5523    0.7035   -0.8555 C   0  0  0  0  0  0  0  0  0  0  0  0
   -2.2907   -1.0951   -1.0958 C   0  0  0  0  0  0  0  0  0  0  0  0
   -3.5542   -0.4200   -0.6900 C   0  0  1  0  0  0  0  0  0  0  0  0
   -3.8747   -0.6468    1.0853 S   0  0  0  0  0  0  0  0  0  0  0  0
   -3.6188    1.0277   -1.0846 C   0  0  0  0  0  0  0  0  0  0  0  0
   -4.9166    1.6258   -0.6398 C   0  0  0  0  0  0  0  0  0  0  0  0
   -5.0780    1.5394    0.8574 C   0  0  0  0  0  0  0  0  0  0  0  0
   -6.2890    2.1033    1.2202 F   0  0  0  0  0  0  0  0  0  0  0  0
  1  2  1  0
  2  3  1  0
  2  4  1  0
  4  5  1  0
  5  6  1  0
  6  7  1  0
  7  8  1  1
  7  9  1  0
  9 10  1  0
 10 11  1  0
 11 12  1  0
 12 13  1  1
 12 14  1  0
 14 15  1  0
 15 16  1  1
 15 17  1  0
 17 18  1  0
 18 19  1  0
 19 20  1  0
M  RAD  1   9   2
M  END
>  <fragInfo>  (1) 
1 2 3
4
5
6
7 8
9
10
11
12 13
14
15 16
17
18
19 20


>  <torsionInfo>  (1) 
2 4 0 1
4 5 1 2
5 6 2 3
6 7 3 4
7 9 4 5
9 10 5 6
10 11 6 7
11 12 7 8
12 14 8 9
14 15 9 10
15 17 10 11
17 18 11 12
18 19 12 13


>  <atomInfo>  (1) 
1  -0.0627736C 
2  -0.0471324C 
3  -0.0627736C 
4  -0.0509643C 
5  -0.0527983C 
6  -0.0504266C 
7  -0.0411603C 
8  -0.0622342C 
9  -0.0357404C 
10 -0.0496639C 
11 -0.0503873C 
12 -0.0432262C 
13 -0.0624698C 
14 -0.0389449C 
15 0.00202273C 
16 -0.1759179SA
17 -0.0390419C 
18 -0.0235203C 
19 0.08944111C 
20 -0.2511078F 


$$$$
