
     RDKit          3D

 50 51  0  0  0  0  0  0  0  0999 V2000
   -1.5645    0.6523   -1.5273 C   0  0  0  0  0  0  0  0  0  0  0  0
   -0.4861    0.1174   -2.2312 O   0  0  0  0  0  0  0  0  0  0  0  0
    0.6994    0.8298   -1.9341 C   0  0  0  0  0  3  0  0  0  0  0  0
    0.4557    1.5361   -0.7833 O   0  0  0  0  0  0  0  0  0  0  0  0
    1.5435    2.1377   -0.2167 C   0  0  2  0  0  0  0  0  0  0  0  0
    1.7213    1.5234    1.1788 C   0  0  0  0  0  0  0  0  0  0  0  0
    1.1385    3.5958    0.0421 C   0  0  1  0  0  0  0  0  0  0  0  0
    0.1266    3.6905    1.0558 N   0  0  0  0  0  0  0  0  0  0  0  0
   -1.0175    4.4751    0.6358 C   0  0  0  0  0  3  0  0  0  0  0  0
   -2.3210    3.7593    0.7676 C   0  0  0  0  0  0  0  0  0  0  0  0
   -2.6544    2.8441   -0.3587 C   0  0  2  0  0  0  0  0  0  0  0  0
   -3.0152    3.4629   -1.5273 O   0  0  0  0  0  0  0  0  0  0  0  0
   -3.5455    1.6904    0.0214 C   0  0  2  0  0  0  0  0  0  0  0  0
   -4.5297    2.2288    1.0599 C   0  0  0  0  0  0  0  0  0  0  0  0
   -2.8191    0.5547    0.6435 C   0  0  1  0  0  0  0  0  0  0  0  0
   -3.7367   -0.4306    0.9847 O   0  0  0  0  0  0  0  0  0  0  0  0
   -4.3596   -0.8473   -0.1777 C   0  0  2  0  0  0  0  0  0  0  0  0
   -5.0113    0.1997   -0.7758 O   0  0  0  0  0  0  0  0  0  0  0  0
   -5.3512   -2.3230   -0.0220 S   0  0  0  0  0  0  0  0  0  0  0  0
   -6.7609   -1.9843    1.0460 C   0  0  0  0  0  3  0  0  0  0  0  0
   -6.8145   -0.5800    1.5566 C   0  0  0  0  0  3  0  0  0  0  0  0
   -7.9283    0.2110    0.9007 C   0  0  0  0  0  3  0  0  0  0  0  0
   -9.1667   -0.6178    0.6703 C   0  0  0  0  0  3  0  0  0  0  0  0
   -8.8846   -1.9207   -0.0335 C   0  0  0  0  0  3  0  0  0  0  0  0
   -9.3003   -3.0244    0.7150 O   0  0  0  0  0  0  0  0  0  0  0  0
   -1.8188   -0.1046   -0.2714 C   0  0  2  0  0  0  0  0  0  0  0  0
   -0.6924   -0.5167    0.4039 O   0  0  0  0  0  0  0  0  0  0  0  0
   -0.2152   -1.7498   -0.0382 C   0  0  0  0  0  0  0  0  0  0  0  0
   -0.7074   -2.7258    0.8278 O   0  0  0  0  0  0  0  0  0  0  0  0
   -0.3764   -3.9850    0.3687 C   0  0  0  0  0  3  0  0  0  0  0  0
    0.5944   -3.8758   -0.6203 O   0  0  0  0  0  0  0  0  0  0  0  0
    1.0595   -5.1324   -0.9328 C   0  0  0  0  0  3  0  0  0  0  0  0
    2.3178   -5.3770   -0.1391 C   0  0  1  0  0  0  0  0  0  0  0  0
    2.0176   -6.2628    0.9003 O   0  0  0  0  0  0  0  0  0  0  0  0
    3.3955   -5.9500   -0.9995 C   0  0  0  0  0  0  0  0  0  0  0  0
    4.6444   -5.4504   -0.9197 C   0  0  0  0  0  0  0  0  0  0  0  0
    4.9673   -4.3358    0.0127 C   0  0  0  0  0  3  0  0  0  0  0  0
    6.1102   -3.6472   -0.4953 O   0  0  0  0  0  0  0  0  0  0  0  0
    6.5854   -2.5738    0.2599 C   0  0  0  0  0  0  0  0  0  0  0  0
    6.8622   -1.4532   -0.4019 C   0  0  0  0  0  0  0  0  0  0  0  0
    7.3678   -0.2983    0.3725 C   0  0  0  0  0  0  0  0  0  0  0  0
    7.8219    0.8184   -0.5362 C   0  0  0  0  0  3  0  0  0  0  0  0
    7.1258    2.0930   -0.1379 C   0  0  0  0  0  0  0  0  0  0  0  0
    5.8761    2.1483   -0.7271 O   0  0  0  0  0  0  0  0  0  0  0  0
    4.8975    2.3184    0.2558 C   0  0  0  0  0  3  0  0  0  0  0  0
    4.4748    3.6271    0.2664 O   0  0  0  0  0  0  0  0  0  0  0  0
    2.3874    4.3819    0.3531 C   0  0  2  0  0  0  0  0  0  0  0  0
    2.1167    5.8177   -0.0808 C   0  0  0  0  0  0  0  0  0  0  0  0
    3.3667    6.6063    0.2304 C   0  0  0  0  0  2  0  0  0  0  0  0
    3.4032    3.8468   -0.4540 O   0  0  0  0  0  0  0  0  0  0  0  0
  1  2  1  0
  2  3  1  0
  3  4  1  0
  4  5  1  0
  5  6  1  1
  5  7  1  0
  7  8  1  1
  8  9  1  0
  9 10  1  0
 10 11  1  0
 11 12  1  6
 11 13  1  0
 13 14  1  1
 13 15  1  0
 15 16  1  6
 16 17  1  0
 17 18  1  1
 17 19  1  0
 19 20  1  0
 20 21  1  0
 21 22  1  0
 22 23  1  0
 23 24  1  0
 24 25  1  0
 15 26  1  0
 26 27  1  1
 27 28  1  0
 28 29  1  0
 29 30  1  0
 30 31  1  0
 31 32  1  0
 32 33  1  0
 33 34  1  1
 33 35  1  0
 35 36  2  3
 36 37  1  0
 37 38  1  0
 38 39  1  0
 39 40  2  3
 40 41  1  0
 41 42  1  0
 42 43  1  0
 43 44  1  0
 44 45  1  0
 45 46  1  0
  7 47  1  0
 47 48  1  6
 48 49  1  0
 47 50  1  0
 26  1  1  0
 50 46  1  0
M  RAD  8   3   2   9   2  20   2  21   2  22   2  23   2  24   2  30   2
M  RAD  5  32   2  37   2  42   2  45   2  49   3
M  END
>  <fragInfo>  (1) 
1 2 3 4 5 6 7 8 9 10 11 12 13 14 15 26 27 28 29 30 31 32 33 34 35 36 37 38 39 40 41 42 43 44 45 46 47 50
16
17 18
19
20
21
22
23
24 25
48 49


>  <torsionInfo>  (1) 
15 16 0 1
47 48 0 9
16 17 1 2
17 19 2 3
19 20 3 4
20 21 4 5
21 22 5 6
22 23 6 7
23 24 7 8


>  <atomInfo>  (1) 
1  0.07892512C 
2  -0.3451212OA
3  0.20935590C 
4  -0.3431607OA
5  0.07601739C 
6  -0.0369005C 
7  0.06302541C 
8  -0.3047311NA
9  0.02510855C 
10 -0.0096258C 
11 0.06065220C 
12 -0.3926852OA
13 0.01114125C 
14 -0.0574319C 
15 0.09506556C 
16 -0.3371884OA
17 0.20461327C 
18 -0.3595371OA
19 -0.0968531SA
20 0.02537542C 
21 -0.0204629C 
22 -0.0278537C 
23 -0.0035760C 
24 0.08362553C 
25 -0.3901086OA
26 0.11039334C 
27 -0.3469332OA
28 0.15027496C 
29 -0.3212248OA
30 0.21172822C 
31 -0.3385837OA
32 0.11940923C 
33 0.10117404C 
34 -0.3862087OA
35 -0.0536922C 
36 -0.0415411C 
37 0.15631223C 
38 -0.4900469OA
39 0.08002318C 
40 -0.0494305C 
41 -0.0263406C 
42 -0.0088030C 
43 0.05354121C 
44 -0.3454142OA
45 0.24542645C 
46 -0.1983568OA
47 0.11113337C 
48 -0.0184765C 
49 -0.0323438C 
50 -0.2287202OA


$$$$
