
     RDKit          3D

 34 33  0  0  0  0  0  0  0  0999 V2000
   -4.2906    3.9301    1.2033 C   0  0  0  0  0  0  0  0  0  0  0  0
   -5.3105    3.0829    1.0918 C   0  0  0  0  0  0  0  0  0  0  0  0
   -6.6944    3.5091    1.5014 C   0  0  0  0  0  0  0  0  0  0  0  0
   -5.0974    1.7262    0.5690 C   0  0  0  0  0  3  0  0  0  0  0  0
   -5.1276    1.6565   -0.9439 C   0  0  0  0  0  0  0  0  0  0  0  0
   -4.9006    0.2358   -1.3529 C   0  0  0  0  0  0  0  0  0  0  0  0
   -3.6028   -0.3404   -0.9044 C   0  0  0  0  0  3  0  0  0  0  0  0
   -3.4021   -0.3633    0.5735 C   0  0  0  0  0  0  0  0  0  0  0  0
   -4.5214   -1.2105    1.1846 C   0  0  0  0  0  0  0  0  0  0  0  0
   -4.4104   -2.6168    0.5866 C   0  0  0  0  0  0  0  0  0  0  0  0
   -5.5141   -3.4520    1.1893 C   0  0  0  0  0  0  0  0  0  0  0  0
   -6.8678   -2.8517    0.8617 C   0  0  0  0  0  3  0  0  0  0  0  0
   -7.1857   -1.9681    1.8664 O   0  0  0  0  0  0  0  0  0  0  0  0
   -2.4153    0.0946   -1.6917 C   0  0  0  0  0  0  0  0  0  0  0  0
   -1.1911   -0.5972   -1.0840 C   0  0  1  0  0  0  0  0  0  0  0  0
   -0.0014   -0.1373   -1.9028 C   0  0  0  0  0  0  0  0  0  0  0  0
    0.0523    1.3744   -1.7617 C   0  0  0  0  0  3  0  0  0  0  0  0
    1.2099    1.9593   -2.5422 C   0  0  0  0  0  3  0  0  0  0  0  0
    2.4797    1.5273   -1.7909 C   0  0  2  0  0  0  0  0  0  0  0  0
    3.6917    2.0763   -2.5134 C   0  0  0  0  0  0  0  0  0  0  0  0
    2.4552    0.0351   -1.7591 C   0  0  0  0  0  0  0  0  0  0  0  0
    3.6950   -0.4587   -1.0193 C   0  0  0  0  0  0  0  0  0  0  0  0
    3.7345   -1.9542   -0.9533 C   0  0  1  0  0  0  0  0  0  0  0  0
    3.7619   -2.6367   -2.2836 C   0  0  0  0  0  0  0  0  0  0  0  0
    4.8054   -2.3969   -0.0044 C   0  0  0  0  0  0  0  0  0  0  0  0
    4.5776   -1.8828    1.3690 C   0  0  2  0  0  0  0  0  0  0  0  0
    3.3522   -2.2947    1.9171 N   0  0  0  0  0  0  0  0  0  0  0  0
    4.9856   -0.4912    1.5827 C   0  0  0  0  0  0  0  0  0  0  0  0
    6.4387   -0.2600    1.3487 C   0  0  1  0  0  0  0  0  0  0  0  0
    6.9208   -0.5756   -0.0284 C   0  0  0  0  0  0  0  0  0  0  0  0
    6.8822    1.1133    1.7848 C   0  0  0  0  0  0  0  0  0  0  0  0
    6.1344    2.1628    1.0267 C   0  0  0  0  0  0  0  0  0  0  0  0
    6.3880    2.0297   -0.4619 C   0  0  0  0  0  2  0  0  0  0  0  0
   -1.0321   -0.0254    0.1794 F   0  0  0  0  0  0  0  0  0  0  0  0
  1  2  2  0
  2  3  1  0
  2  4  1  0
  4  5  1  0
  5  6  1  0
  6  7  1  0
  7  8  1  0
  8  9  1  0
  9 10  1  0
 10 11  1  0
 11 12  1  0
 12 13  1  0
  7 14  1  0
 14 15  1  0
 15 16  1  0
 16 17  1  0
 17 18  1  0
 18 19  1  0
 19 20  1  6
 19 21  1  0
 21 22  1  0
 22 23  1  0
 23 24  1  6
 23 25  1  0
 25 26  1  0
 26 27  1  6
 26 28  1  0
 28 29  1  0
 29 30  1  6
 29 31  1  0
 31 32  1  0
 32 33  1  0
 15 34  1  1
M  RAD  6   4   2   7   2  12   2  17   2  18   2  33   3
M  END
>  <fragInfo>  (1) 
1 2 3
4
5
6
7
8
9
10
11
12 13
14
15 34
16
17
18
19 20
21
22
23 24
25
26 27
28
29 30
31
32 33


>  <torsionInfo>  (1) 
2 4 0 1
4 5 1 2
5 6 2 3
6 7 3 4
7 8 4 5
7 14 4 10
8 9 5 6
9 10 6 7
10 11 7 8
11 12 8 9
14 15 10 11
15 16 11 12
16 17 12 13
17 18 13 14
18 19 14 15
19 21 15 16
21 22 16 17
22 23 17 18
23 25 18 19
25 26 19 20
26 28 20 21
28 29 21 22
29 31 22 23
31 32 23 24


>  <atomInfo>  (1) 
1  -0.0998388C 
2  -0.0768143C 
3  -0.0439038C 
4  -0.0143029C 
5  -0.0455889C 
6  -0.0463666C 
7  -0.0212111C 
8  -0.0469563C 
9  -0.0526582C 
10 -0.0507264C 
11 -0.0244503C 
12 0.07986606C 
13 -0.3904366OA
14 -0.0154535C 
15 0.10095193C 
16 -0.0182542C 
17 -0.0320530C 
18 -0.0322507C 
19 -0.0408635C 
20 -0.0622234C 
21 -0.0501711C 
22 -0.0503892C 
23 -0.0427984C 
24 -0.0624517C 
25 -0.0353890C 
26 0.00438507C 
27 -0.3276910NA
28 -0.0353890C 
29 -0.0427980C 
30 -0.0624517C 
31 -0.0503689C 
32 -0.0496426C 
33 -0.0351820C 
34 -0.2474607F 


$$$$
