
     RDKit          3D

 30 32  0  0  0  0  0  0  0  0999 V2000
   -4.9854    0.4979   -1.2173 N   0  0  0  0  0  2  0  0  0  0  0  0
   -4.7007    0.6622   -2.5774 C   0  0  0  0  0  0  0  0  0  0  0  0
   -3.7102    0.9427   -3.4138 C   0  0  0  0  0  0  0  0  0  0  0  0
   -2.3028    1.2355   -3.1876 C   0  0  0  0  0  0  0  0  0  0  0  0
   -1.4813    0.9310   -2.1815 C   0  0  0  0  0  0  0  0  0  0  0  0
   -1.6484    0.2025   -0.9328 C   0  0  0  0  0  0  0  0  0  0  0  0
   -0.3955   -0.0537   -0.2079 C   0  0  0  0  0  0  0  0  0  0  0  0
   -0.4262   -0.6768    0.8849 O   0  0  0  0  0  0  0  0  0  0  0  0
    0.8566    0.3686   -0.6800 N   0  0  0  0  0  0  0  0  0  0  0  0
    2.0802    0.1300    0.0074 C   0  0  0  0  0  0  0  0  0  0  0  0
    2.1634   -0.5406    1.2087 C   0  0  0  0  0  0  0  0  0  0  0  0
    3.3956   -0.7422    1.8328 C   0  0  0  0  0  0  0  0  0  0  0  0
    4.5681   -0.2823    1.2768 C   0  0  0  0  0  0  0  0  0  0  0  0
    4.4776    0.3875    0.0754 C   0  0  0  0  0  0  0  0  0  0  0  0
    3.2607    0.5867   -0.5412 C   0  0  0  0  0  0  0  0  0  0  0  0
    5.7001    0.8826   -0.5319 C   0  0  0  0  0  0  0  0  0  0  0  0
    6.8860    0.7355   -0.0140 C   0  0  0  0  0  0  0  0  0  0  0  0
    7.1197    0.0699    1.2112 N   0  0  0  0  0  0  0  0  0  0  0  0
    7.2930    0.9101    2.3991 C   0  0  0  0  0  0  0  0  0  0  0  0
    7.1879   -1.3026    1.3225 N   0  0  0  0  0  4  0  0  0  0  0  0
    7.1902   -1.8403    2.4438 O   0  0  0  0  0  0  0  0  0  0  0  0
    7.2562   -2.0857    0.0891 C   0  0  0  0  0  0  0  0  0  0  0  0
   -2.7035   -0.2847   -0.3038 C   0  0  0  0  0  0  0  0  0  0  0  0
   -4.1040   -0.3305   -0.5293 N   0  0  0  0  0  0  0  0  0  0  0  0
   -4.7618   -1.4693    0.0771 C   0  0  0  0  0  0  0  0  0  0  0  0
   -6.1723   -1.4870   -0.1690 N   0  0  0  0  0  3  0  0  0  0  0  0
   -6.9920   -0.7527    0.5086 C   0  0  0  0  0  0  0  0  0  0  0  0
   -7.1257    0.2244    1.5641 O   0  0  0  0  0  0  0  0  0  0  0  0
   -8.2428   -0.2621    0.8485 N   0  0  0  0  0  0  0  0  0  0  0  0
   -9.6827   -0.1529    0.7375 C   0  0  0  0  0  0  0  0  0  0  0  0
  1  2  1  0
  2  3  2  3
  3  4  1  0
  4  5  2  3
  5  6  1  0
  6  7  1  0
  7  8  2  0
  7  9  1  0
  9 10  1  0
 10 11  2  0
 11 12  1  0
 12 13  2  0
 13 14  1  0
 14 15  2  0
 14 16  1  0
 16 17  2  3
 17 18  1  0
 18 19  1  0
 18 20  1  0
 20 21  2  0
 20 22  1  0
  6 23  2  3
 23 24  1  0
 24 25  1  0
 25 26  1  0
 26 27  2  3
 27 28  1  0
 28 29  1  0
 29 30  1  0
 24  1  1  0
 15 10  1  0
 29 27  1  0
M  CHG  3   1   1  20   1  26   1
M  RAD  2   1   3  26   2
M  END
>  <fragInfo>  (1) 
1 2 3 4 5 6 23 24
7 8 9
10 11 12 13 14 15
16 17
18 19
20 21 22
25
26 27 28 29 30


>  <torsionInfo>  (1) 
6 7 0 1
24 25 0 6
9 10 1 2
14 16 2 3
17 18 3 4
18 20 4 5
25 26 6 7


>  <atomInfo>  (1) 
1  0.24848119N 
2  0.24931695C 
3  0.00649621C 
4  -0.0555844C 
5  -0.0475405C 
6  0.06150732C 
7  0.25685409C 
8  -0.2688637OA
9  -0.3219259N 
10 0.04158070A 
11 -0.0384828A 
12 -0.0596039A 
13 -0.0547753A 
14 -0.0219338A 
15 -0.0311949A 
16 -0.0328422C 
17 0.06753045C 
18 -0.1193405N 
19 0.07130079C 
20 0.11830368N 
21 0.05098385OA
22 0.21605545C 
23 0.08262413C 
24 -0.0695872N 
25 0.26214440C 
26 -0.0120428N 
27 0.57225583C 
28 -0.2074233OA
29 -0.0252790N 
30 0.12357965C 


$$$$
