
     RDKit          3D

 40 42  0  0  0  0  0  0  0  0999 V2000
   -1.5860   -1.5323    4.8753 O   0  0  0  0  0  0  0  0  0  0  0  0
   -1.7171   -0.8651    3.7928 C   0  0  0  0  0  0  0  0  0  0  0  0
   -2.9427   -0.2588    3.5515 N   0  0  0  0  0  0  0  0  0  0  0  0
   -4.1108   -0.5585    2.9410 C   0  0  0  0  0  0  0  0  0  0  0  0
   -4.6466   -0.2805    1.7666 C   0  0  0  0  0  0  0  0  0  0  0  0
   -5.9581   -0.7770    1.4313 C   0  0  0  0  0  0  0  0  0  0  0  0
   -6.7847   -0.7953    0.5679 C   0  0  0  0  0  0  0  0  0  0  0  0
   -7.2957   -0.4848   -0.6806 C   0  0  0  0  0  0  0  0  0  0  0  0
   -6.4769    0.4583   -1.9281 Cl  0  0  0  0  0  0  0  0  0  0  0  0
   -8.5097   -0.9201   -1.0305 C   0  0  0  0  0  0  0  0  0  0  0  0
   -9.1576   -0.6589   -2.3182 C   0  0  0  0  0  0  0  0  0  0  0  0
   -0.6739   -0.7186    2.8388 N   0  0  0  0  0  0  0  0  0  0  0  0
    0.0193    0.5152    2.5307 C   0  0  0  0  0  0  0  0  0  0  0  0
   -0.0514    0.9450    1.1123 C   0  0  0  0  0  0  0  0  0  0  0  0
    0.2823   -0.1060    0.1292 C   0  0  0  0  0  0  0  0  0  0  0  0
   -0.7601   -1.0259   -0.3732 C   0  0  1  0  0  0  0  0  0  0  0  0
   -0.2940   -2.2904   -0.6344 O   0  0  0  0  0  0  0  0  0  0  0  0
   -2.0119   -1.0004    0.4220 C   0  0  0  0  0  0  0  0  0  0  0  0
   -2.7777    0.2541    0.2249 C   0  0  0  0  0  0  0  0  0  0  0  0
   -3.9184    0.5433    0.8191 C   0  0  0  0  0  0  0  0  0  0  0  0
   -4.3470    1.8903    0.3444 C   0  0  0  0  0  0  0  0  0  0  0  0
   -3.5003    2.3895   -0.4981 C   0  0  0  0  0  0  0  0  0  0  0  0
   -2.4166    1.4013   -0.6590 C   0  0  2  0  0  0  0  0  0  0  0  0
   -2.4773    0.7997   -2.3312 Cl  0  0  0  0  0  0  0  0  0  0  0  0
    1.5156   -0.2379   -0.3044 C   0  0  0  0  0  0  0  0  0  0  0  0
    1.9920   -1.2119   -1.2608 C   0  0  0  0  0  0  0  0  0  0  0  0
    2.6355   -0.9337   -2.3901 C   0  0  0  0  0  0  0  0  0  0  0  0
    2.9725    0.3746   -2.8649 C   0  0  0  0  0  0  0  0  0  0  0  0
    4.2255    0.7372   -2.9863 C   0  0  0  0  0  0  0  0  0  0  0  0
    5.2834   -0.1764   -2.6428 C   0  0  0  0  0  0  0  0  0  0  0  0
    6.5684    0.1035   -2.7878 C   0  0  0  0  0  0  0  0  0  0  0  0
    7.5702   -0.9387   -2.3903 C   0  0  0  0  0  0  0  0  0  0  0  0
    8.2070   -0.4653   -0.7433 S   0  0  0  0  0  0  0  0  0  0  0  0
    8.7114    1.2266   -0.8042 C   0  0  0  0  0  0  0  0  0  0  0  0
    8.1573    2.2329   -0.1636 C   0  0  0  0  0  0  0  0  0  0  0  0
    7.0042    2.1713    0.7379 C   0  0  0  0  0  0  0  0  0  0  0  0
    6.1172    1.0196    0.4514 C   0  0  0  0  0  0  0  0  0  0  0  0
    4.7977    1.2071    0.6629 C   0  0  0  0  0  0  0  0  0  0  0  0
    3.8411    0.1188    0.4056 C   0  0  0  0  0  0  0  0  0  0  0  0
    2.5143    0.6380    0.1862 O   0  0  0  0  0  0  0  0  0  0  0  0
  1  2  2  0
  2  3  1  0
  3  4  1  0
  4  5  2  3
  5  6  1  0
  6  7  2  3
  7  8  1  0
  8  9  1  0
  8 10  2  3
 10 11  1  0
  2 12  1  0
 12 13  1  0
 13 14  1  0
 14 15  1  0
 15 16  1  0
 16 17  1  1
 16 18  1  0
 18 19  1  0
 19 20  2  0
 20 21  1  0
 21 22  2  0
 22 23  1  0
 23 24  1  6
 15 25  2  3
 25 26  1  0
 26 27  2  3
 27 28  1  0
 28 29  2  3
 29 30  1  0
 30 31  2  3
 31 32  1  0
 32 33  1  0
 33 34  1  0
 34 35  2  3
 35 36  1  0
 36 37  1  0
 37 38  2  3
 38 39  1  0
 39 40  1  0
 20  5  1  0
 23 19  1  0
 40 25  1  0
M  END
>  <fragInfo>  (1) 
1 2 3 4 5 12 13 14 15 16 17 18 19 20 21 22 23 24 25 26 27 28 29 30 31 32 33 34 35 36 37 38 39 40
6 7
8 9 10 11


>  <torsionInfo>  (1) 
5 6 0 1
7 8 1 2


>  <atomInfo>  (1) 
1  -0.2485267OA
2  0.31829190C 
3  -0.3140681N 
4  0.01337620C 
5  -0.0021165C 
6  -0.0514489C 
7  -0.0431943C 
8  0.03630670C 
9  -0.0847044Cl
10 -0.0689386C 
11 -0.0452149C 
12 -0.3375560N 
13 0.02310032C 
14 -0.0078571C 
15 0.00226004C 
16 0.08268106C 
17 -0.3882721OA
18 0.00097087C 
19 -0.0378135C 
20 -0.0160847C 
21 -0.0565215C 
22 -0.0620290C 
23 0.07390269C 
24 -0.1135671Cl
25 0.12113466C 
26 -0.0198929C 
27 -0.0585871C 
28 -0.0621448C 
29 -0.0625532C 
30 -0.0654362C 
31 -0.0742637C 
32 0.01573713C 
33 -0.1302854SA
34 -0.0325866C 
35 -0.0744141C 
36 -0.0159757C 
37 -0.0813669C 
38 -0.0510456C 
39 0.10639657C 
40 -0.4894909OA


$$$$
