
     RDKit          2D

 78 88  0  0  0  0  0  0  0  0999 V2000
    0.1994   12.6194    0.0000 N   0  0  0  0  0  0  0  0  0  0  0  0
    1.0810   11.4058    0.0000 C   0  0  0  0  0  0  0  0  0  0  0  0
    2.5728   11.5626    0.0000 N   0  0  0  0  0  0  0  0  0  0  0  0
    3.4545   10.3491    0.0000 C   0  0  0  0  0  0  0  0  0  0  0  0
    4.9463   10.5059    0.0000 Cl  0  0  0  0  0  0  0  0  0  0  0  0
    2.8444    8.9788    0.0000 N   0  0  0  0  0  0  0  0  0  0  0  0
    1.3526    8.8220    0.0000 C   0  0  0  0  0  0  0  0  0  0  0  0
    0.4709   10.0355    0.0000 C   0  0  0  0  0  0  0  0  0  0  0  0
   -0.9556    9.5720    0.0000 N   0  0  0  0  0  0  0  0  0  0  0  0
   -0.9556    8.0720    0.0000 N   0  0  0  0  0  0  0  0  0  0  0  0
    0.4709    7.6085    0.0000 C   0  0  0  0  0  0  0  0  0  0  0  0
    0.9345    6.1819    0.0000 C   0  0  0  0  0  3  0  0  0  0  0  0
   -0.0692    5.0672    0.0000 O   0  0  0  0  0  0  0  0  0  0  0  0
    0.3943    3.6406    0.0000 C   0  0  0  0  0  0  0  0  0  0  0  0
    1.8209    3.1771    0.0000 C   0  0  0  0  0  0  0  0  0  0  0  0
    1.8209    1.6771    0.0000 S   0  0  0  0  0  0  0  0  0  0  0  0
    3.0344    0.7954    0.0000 C   0  0  0  0  0  0  0  0  0  0  0  0
    4.4047    1.4055    0.0000 C   0  0  0  0  0  0  0  0  0  0  0  0
    5.2864    2.6190    0.0000 C   0  0  0  0  0  0  0  0  0  0  0  0
    5.8965    1.2487    0.0000 C   0  0  0  0  0  0  0  0  0  0  0  0
    7.1100    0.3670    0.0000 C   0  0  0  0  0  0  0  0  0  0  0  0
    6.9532   -1.1248    0.0000 O   0  0  0  0  0  0  0  0  0  0  0  0
    8.4804    0.9771    0.0000 O   0  0  0  0  0  0  0  0  0  0  0  0
   -0.4874    2.4271    0.0000 C   0  0  0  0  0  0  0  0  0  0  0  0
   -1.9874    2.4271    0.0000 O   0  0  0  0  0  0  0  0  0  0  0  0
    0.3943    1.2135    0.0000 C   0  0  0  0  0  0  0  0  0  0  0  0
    1.2760    0.0000    0.0000 C   0  0  0  0  0  3  0  0  0  0  0  0
    0.3943   -1.2135    0.0000 N   0  0  0  0  0  0  0  0  0  0  0  0
   -1.0323   -0.7500    0.0000 C   0  0  0  0  0  0  0  0  0  0  0  0
   -1.0323    0.7500    0.0000 S   0  0  0  0  0  0  0  0  0  0  0  0
   -1.9140   -0.4635    0.0000 N   0  0  0  0  0  0  0  0  0  0  0  0
   -1.0323   -1.6771    0.0000 N   0  0  0  0  0  0  0  0  0  0  0  0
   -1.4958   -3.1036    0.0000 C   0  0  0  0  0  3  0  0  0  0  0  0
   -2.9630   -3.4155    0.0000 S   0  0  0  0  0  0  0  0  0  0  0  0
   -3.4266   -4.8421    0.0000 N   0  0  0  0  0  0  0  0  0  0  0  0
   -2.3424   -5.8787    0.0000 C   0  0  0  0  0  0  0  0  0  0  0  0
   -2.4768   -7.3726    0.0000 C   0  0  0  0  0  3  0  0  0  0  0  0
   -3.7287   -8.1990    0.0000 N   0  0  0  0  0  0  0  0  0  0  0  0
   -5.1305   -7.4607    0.0000 C   0  0  0  0  0  0  0  0  0  0  0  0
   -4.1436   -6.3311    0.0000 N   0  0  0  0  0  0  0  0  0  0  0  0
   -4.9130   -5.0434    0.0000 C   0  0  0  0  0  0  0  0  0  0  0  0
   -6.3754   -5.3772    0.0000 O   0  0  0  0  0  0  0  0  0  0  0  0
   -6.5098   -6.8712    0.0000 C   0  0  0  0  0  0  0  0  0  0  0  0
   -7.7975   -7.6405    0.0000 C   0  0  0  0  0  3  0  0  0  0  0  0
   -9.1076   -6.9100    0.0000 C   0  0  0  0  0  0  0  0  0  0  0  0
   -0.9380   -5.3516    0.0000 N   0  0  0  0  0  0  0  0  0  0  0  0
    0.2206   -6.3043    0.0000 S   0  0  0  0  0  0  0  0  0  0  0  0
    1.6250   -5.7772    0.0000 N   0  0  0  0  0  0  0  0  0  0  0  0
   -0.0251   -7.7840    0.0000 N   0  0  0  0  0  0  0  0  0  0  0  0
    1.1335   -8.7367    0.0000 C   0  0  0  0  0  0  0  0  0  0  0  0
    0.8878  -10.2164    0.0000 N   0  0  0  0  0  0  0  0  0  0  0  0
   -1.4295   -8.3111    0.0000 C   0  0  0  0  0  0  0  0  0  0  0  0
   -1.6752   -9.7908    0.0000 N   0  0  0  0  0  0  0  0  0  0  0  0
   -3.0795  -10.3179    0.0000 C   0  0  0  0  0  0  0  0  0  0  0  0
   -3.3253  -11.7976    0.0000 N   0  0  0  0  0  0  0  0  0  0  0  0
   -4.7296  -12.3247    0.0000 S   0  0  0  0  0  0  0  0  0  0  0  0
   -4.9754  -13.8044    0.0000 C   0  0  0  0  0  3  0  0  0  0  0  0
   -6.3797  -14.3315    0.0000 C   0  0  0  0  0  0  0  0  0  0  0  0
   -6.6254  -15.8112    0.0000 O   0  0  0  0  0  0  0  0  0  0  0  0
   -8.0298  -16.3383    0.0000 S   0  0  0  0  0  0  0  0  0  0  0  0
   -8.2014  -14.8481    0.0000 N   0  0  0  0  0  0  0  0  0  0  0  0
   -7.5027  -17.7426    0.0000 C   0  0  0  0  0  3  0  0  0  0  0  0
   -8.9071  -18.2697    0.0000 C   0  0  0  0  0  0  0  0  0  0  0  0
   -9.4341  -16.8653    0.0000 C   0  0  0  0  0  0  0  0  0  0  0  0
  -10.7999  -16.2450    0.0000 N   0  0  0  0  0  0  0  0  0  0  0  0
  -11.1007  -14.7755    0.0000 N   0  0  0  0  0  0  0  0  0  0  0  0
  -12.5913  -14.6075    0.0000 O   0  0  0  0  0  0  0  0  0  0  0  0
  -13.2116  -15.9733    0.0000 C   0  0  0  0  0  0  0  0  0  0  0  0
  -12.1045  -16.9853    0.0000 C   0  0  0  0  0  0  0  0  0  0  0  0
  -10.8095  -17.7613    0.0000 C   0  0  0  0  0  0  0  0  0  0  0  0
   -9.5894  -16.8887    0.0000 C   0  0  0  0  0  0  0  0  0  0  0  0
   -9.7350  -15.3958    0.0000 C   0  0  0  0  0  0  0  0  0  0  0  0
   -8.5149  -14.5233    0.0000 C   0  0  0  0  0  0  0  0  0  0  0  0
   -8.6606  -13.0303    0.0000 N   0  0  0  0  0  0  0  0  0  0  0  0
   -7.4405  -12.1578    0.0000 C   0  0  0  0  0  3  0  0  0  0  0  0
   -7.5861  -10.6649    0.0000 C   0  0  0  0  0  2  0  0  0  0  0  0
  -10.6638  -19.2542    0.0000 N   0  0  0  0  0  0  0  0  0  0  0  0
  -11.8839  -20.1268    0.0000 C   0  0  0  0  0  2  0  0  0  0  0  0
  1  2  1  0
  2  3  2  0
  3  4  1  0
  4  5  1  0
  4  6  2  0
  6  7  1  0
  7  8  2  0
  8  9  1  0
  9 10  1  0
 10 11  2  0
 11 12  1  0
 12 13  1  0
 14 13  1  6
 14 15  1  0
 15 16  1  0
 16 17  1  0
 17 18  1  0
 18 19  1  0
 19 20  1  0
 20 21  1  0
 21 22  1  0
 21 23  1  0
 14 24  1  0
 24 25  1  6
 24 26  1  0
 26 27  1  0
 27 28  1  0
 28 29  1  0
 29 30  1  0
 30 31  1  0
 31 32  1  0
 32 33  1  0
 33 34  1  0
 34 35  1  0
 35 36  1  0
 36 37  1  0
 37 38  1  0
 38 39  1  0
 39 40  1  0
 40 41  2  0
 41 42  1  0
 42 43  1  0
 43 44  1  1
 44 45  1  0
 36 46  1  6
 46 47  1  0
 47 48  1  0
 47 49  1  0
 49 50  1  0
 50 51  1  0
 49 52  1  0
 52 53  2  3
 53 54  1  0
 54 55  2  3
 55 56  1  0
 56 57  1  0
 57 58  1  0
 58 59  1  0
 59 60  1  0
 60 61  1  0
 60 62  1  0
 62 63  1  0
 63 64  2  0
 64 65  1  0
 65 66  1  0
 66 67  1  0
 67 68  1  0
 68 69  2  0
 69 70  1  0
 70 71  1  0
 71 72  2  0
 72 73  1  0
 73 74  1  0
 74 75  1  0
 75 76  1  0
 70 77  1  0
 77 78  1  0
  8  2  1  0
 11  7  1  0
 26 16  1  0
 20 18  1  0
 30 26  1  0
 32 28  1  0
 41 35  1  0
 43 39  1  0
 64 60  1  0
 69 65  1  0
 72 66  1  0
M  RAD  8  12   2  27   2  33   2  37   2  44   2  57   2  62   2  75   2
M  RAD  2  76   3  78   3
M  END
>  <fragInfo>  (1) 
14 15 16 24 25 26 27 28 29 30 31 32
1 2 3 4 5 6 7 8 9 10 11
12
13
17
18 19 20
21 22 23
33
34
35 36 37 38 39 40 41 42 43
44 45
46
47 48
49
50 51
52 53
54 55
56
57
58
59
60 61 62 63 64
65 66 67 68 69 70 71 72
73
74
75 76
77 78


>  <torsionInfo>  (1) 
13 14 3 0
16 17 0 4
32 33 0 7
11 12 1 2
12 13 2 3
17 18 4 5
20 21 5 6
33 34 7 8
34 35 8 9
36 46 9 11
43 44 9 10
46 47 11 12
47 49 12 13
49 50 13 14
49 52 13 15
53 54 15 16
55 56 16 17
56 57 17 18
57 58 18 19
58 59 19 20
59 60 20 21
64 65 21 22
70 77 22 26
72 73 22 23
73 74 23 24
74 75 24 25


>  <atomInfo>  (1) 
1  -0.3817544N 
2  0.15400168A 
3  -0.1986952NA
4  0.22458080A 
5  -0.0407285Cl
6  -0.2139792NA
7  0.12130326A 
8  0.12621180A 
9  -0.2720834N 
10 -0.1747367NA
11 0.12065280A 
12 0.13594669C 
13 -0.3617729OA
14 0.09399402C 
15 0.00518514C 
16 -0.2325653S 
17 -0.0205765C 
18 -0.0258024C 
19 -0.0412812C 
20 0.01341097C 
21 0.15409746C 
22 -0.3679363OA
23 -0.3679363OA
24 0.10426142C 
25 -0.3880546OA
26 0.08675411C 
27 0.07053940C 
28 -0.2097049NA
29 0.05675945C 
30 -0.1533021S 
31 -0.2019390NA
32 -0.1506172NA
33 0.13562858C 
34 -0.0189264SA
35 -0.2490697N 
36 0.12170749C 
37 0.06336098C 
38 -0.2845620NA
39 0.14304415C 
40 -0.2113295NA
41 0.30089579C 
42 -0.4571346OA
43 0.14045953C 
44 0.00284565C 
45 -0.0584310C 
46 -0.2325476NA
47 -0.0655503S 
48 -0.2700963NA
49 -0.2900843N 
50 0.07788676C 
51 -0.3131012NA
52 0.10389191C 
53 -0.2255963NA
54 0.12491761C 
55 -0.2042138NA
56 -0.0173444SA
57 0.06731837C 
58 0.07616740C 
59 -0.3159961OA
60 -0.0307266S 
61 -0.2690637NA
62 0.06694785C 
63 -0.0335339C 
64 0.11515436C 
65 -0.2119584N 
66 -0.1122186N 
67 -0.3648934OA
68 0.14509664C 
69 0.10335000C 
70 0.07404348C 
71 -0.0352247C 
72 0.08911788C 
73 0.04123474C 
74 -0.3063949NA
75 0.02625146C 
76 -0.0149973C 
77 -0.2992430NA
78 0.04156204C 


$$$$
