
     RDKit          3D

 59 60  0  0  0  0  0  0  0  0999 V2000
    0.6665    3.4164   -1.7667 C   0  0  0  0  0  0  0  0  0  0  0  0
   -0.4341    4.1673   -1.0352 C   0  0  2  0  0  0  0  0  0  0  0  0
   -1.5214    3.1619   -0.7224 C   0  0  0  0  0  0  0  0  0  0  0  0
   -0.8873    5.2253   -1.7956 O   0  0  0  0  0  0  0  0  0  0  0  0
    0.1529    4.6978    0.2780 C   0  0  0  0  0  0  0  0  0  0  0  0
    1.5920    5.1301   -0.0244 C   0  0  0  0  0  0  0  0  0  0  0  0
    2.3763    5.2780    1.2462 C   0  0  2  0  0  0  0  0  0  0  0  0
    2.1288    6.6215    1.8943 C   0  0  0  0  0  2  0  0  0  0  0  0
    3.8556    5.0466    1.0446 C   0  0  1  0  0  0  0  0  0  0  0  0
    4.3874    4.4514    2.3530 C   0  0  0  0  0  1  0  0  0  0  0  0
    4.1204    4.0635   -0.0936 C   0  0  0  0  0  0  0  0  0  0  0  0
    5.4966    3.8802   -0.1660 O   0  0  0  0  0  0  0  0  0  0  0  0
    6.0083    3.1598    0.8864 C   0  0  0  0  0  0  0  0  0  0  0  0
    7.1004    2.2241    0.4047 C   0  0  1  0  0  0  0  0  0  0  0  0
    8.0994    1.9391    1.5085 C   0  0  0  0  0  0  0  0  0  0  0  0
    6.5122    0.9564   -0.1381 C   0  0  0  0  0  0  0  0  0  0  0  0
    6.8560   -0.2412    0.6880 C   0  0  0  0  0  0  0  0  0  0  0  0
    5.7171   -0.7102    1.5461 C   0  0  0  0  0  0  0  0  0  0  0  0
    5.0832   -1.9514    0.9898 C   0  0  1  0  0  0  0  0  0  0  0  0
    5.4439   -3.2836    1.5717 C   0  0  2  0  0  0  0  0  0  0  0  0
    6.6487   -3.9996    0.9695 C   0  0  0  0  0  0  0  0  0  0  0  0
    6.8692   -5.3165    1.6678 C   0  0  0  0  0  3  0  0  0  0  0  0
    7.7134   -5.2009    2.7603 O   0  0  0  0  0  0  0  0  0  0  0  0
    4.1977   -2.7941    0.8523 S   0  0  2  0  0  0  0  0  0  0  0  0
    3.7227   -3.3039   -0.9654 C   0  0  0  0  0  0  0  0  0  0  0  0
    3.1969   -4.7148   -0.7489 C   0  0  0  0  0  3  0  0  0  0  0  0
    1.7080   -4.6051    0.3335 P   0  0  0  0  0  0  0  0  0  0  0  0
    0.6844   -6.1433    0.2957 C   0  0  0  0  0  3  0  0  0  0  0  0
    0.6730   -6.7585    1.5684 O   0  0  0  0  0  0  0  0  0  0  0  0
    0.5840   -2.8489   -0.1366 S   0  0  0  0  0  0  0  0  0  0  0  0
   -1.1443   -3.2171   -0.5303 C   0  0  2  0  0  0  0  0  0  0  0  0
   -1.3225   -3.4959   -1.9891 C   0  0  0  0  0  0  0  0  0  0  0  0
   -2.9988   -3.8695   -2.4675 S   0  0  0  0  0  0  0  0  0  0  0  0
   -3.0110   -4.1785   -4.2721 C   0  0  0  0  0  3  0  0  0  0  0  0
   -4.3866   -4.5024   -4.7653 C   0  0  0  0  0  0  0  0  0  0  0  0
   -2.0200   -2.1774    0.0347 C   0  0  1  0  0  0  0  0  0  0  0  0
   -1.3519   -1.5401    1.1060 O   0  0  0  0  0  0  0  0  0  0  0  0
   -2.4553   -1.1020   -0.9052 C   0  0  2  0  0  0  0  0  0  0  0  0
   -1.5244   -0.8248   -2.0213 C   0  0  2  0  0  0  0  0  0  0  0  0
   -0.1556   -0.3866   -1.6336 C   0  0  0  0  0  0  0  0  0  0  0  0
   -2.1499   -0.0556   -3.1333 C   0  0  0  0  0  0  0  0  0  0  0  0
   -3.2100   -0.7884   -3.6324 F   0  0  0  0  0  0  0  0  0  0  0  0
   -2.8554    0.1414   -0.1418 C   0  0  1  0  0  0  0  0  0  0  0  0
   -3.9678    0.9078   -0.7600 C   0  0  2  0  0  0  0  0  0  0  0  0
   -5.1257    0.0965   -1.2282 C   0  0  0  0  0  0  0  0  0  0  0  0
   -6.1505    1.0552   -1.8252 C   0  0  0  0  0  0  0  0  0  0  0  0
   -7.3708    0.3279   -2.3329 C   0  0  0  0  0  0  0  0  0  0  0  0
   -8.0188   -0.4147   -1.1729 C   0  0  0  0  0  2  0  0  0  0  0  0
   -3.5537    2.0098   -1.6736 C   0  0  0  0  0  0  0  0  0  0  0  0
   -3.8018    3.3785   -1.0631 C   0  0  2  0  0  0  0  0  0  0  0  0
   -4.0496    4.5962   -2.3693 S   0  0  0  0  0  0  0  0  0  0  0  0
   -2.6987    3.7799   -0.3103 O   0  0  0  0  0  0  0  0  0  0  0  0
   -3.2578   -0.2870    1.2474 C   0  0  0  0  0  0  0  0  0  0  0  0
   -4.3336   -1.1794    1.1903 O   0  0  0  0  0  0  0  0  0  0  0  0
   -4.7287   -1.5933    2.4496 C   0  0  0  0  0  3  0  0  0  0  0  0
   -5.6831   -0.6161    3.0960 C   0  0  0  0  0  0  0  0  0  0  0  0
   -4.8548    0.3814    3.8705 C   0  0  0  0  0  0  0  0  0  0  0  0
   -5.8086    1.3564    4.5150 C   0  0  0  0  0  3  0  0  0  0  0  0
   -6.7623    0.6504    5.4521 C   0  0  0  0  0  2  0  0  0  0  0  0
  2  1  1  6
  2  3  1  0
  2  4  1  0
  2  5  1  0
  5  6  1  0
  6  7  1  0
  7  8  1  6
  7  9  1  0
  9 10  1  1
  9 11  1  0
 11 12  1  0
 12 13  1  0
 13 14  1  0
 14 15  1  1
 14 16  1  0
 16 17  1  0
 17 18  1  0
 19 18  1  1
 19 20  1  0
 20 21  1  6
 21 22  1  0
 22 23  1  0
 19 24  1  0
 24 25  1  6
 25 26  1  0
 26 27  1  0
 27 28  1  0
 28 29  1  0
 27 30  1  0
 30 31  1  0
 31 32  1  6
 32 33  1  0
 33 34  1  0
 34 35  1  0
 31 36  1  0
 36 37  1  1
 38 36  1  0
 38 39  1  6
 39 40  1  1
 39 41  1  0
 41 42  1  0
 38 43  1  0
 43 44  1  0
 44 45  1  6
 45 46  1  0
 46 47  1  0
 47 48  1  0
 44 49  1  0
 49 50  1  0
 50 51  1  6
 50 52  1  0
 43 53  1  1
 53 54  1  0
 54 55  1  0
 55 56  1  0
 56 57  1  0
 57 58  1  0
 58 59  1  0
 52  3  1  0
 24 20  1  0
M  RAD  8   8   3  10   2  22   2  26   2  28   2  34   2  48   3  55   2
M  RAD  2  58   2  59   3
M  END
>  <fragInfo>  (1) 
1 2 3 4 5 6 7 8 9 10 11 12 13 14 15 16 17 18 19 20 24 25 26 27 30 31 36 37 38 43 44 49 50 51 52
21
22 23
28 29
32
33
34 35
39 40
41 42
45
46
47 48
53
54
55
56
57
58 59


>  <torsionInfo>  (1) 
20 21 0 1
27 28 0 3
31 32 0 4
38 39 0 7
43 53 0 12
44 45 0 9
21 22 1 2
32 33 4 5
33 34 5 6
39 41 7 8
45 46 9 10
46 47 10 11
53 54 12 13
54 55 13 14
55 56 14 15
56 57 15 16
57 58 16 17


>  <atomInfo>  (1) 
1  -0.0337901C 
2  0.08524404C 
3  0.07660977C 
4  -0.3877762OA
5  -0.0218530C 
6  -0.0469759C 
7  -0.0322697C 
8  -0.0314031C 
9  -0.0072947C 
10 -0.0029100C 
11 0.05026321C 
12 -0.3808531OA
13 0.04912753C 
14 -0.0206832C 
15 -0.0603078C 
16 -0.0484753C 
17 -0.0519375C 
18 -0.0419225C 
19 -0.0029837C 
20 -0.0005267C 
21 -0.0131167C 
22 0.08093688C 
23 -0.3903931OA
24 -0.2450794S 
25 -0.0164174C 
26 0.00659493C 
27 -0.0085804P 
28 0.11328242C 
29 -0.3846330OA
30 -0.1240987SA
31 0.04431905C 
32 0.00836485C 
33 -0.1564609SA
34 0.01354647C 
35 -0.0522402C 
36 0.07048436C 
37 -0.3916160OA
38 -0.0037692C 
39 -0.0099566C 
40 -0.0596342C 
41 0.09232107C 
42 -0.2508009F 
43 -0.0091729C 
44 -0.0327192C 
45 -0.0499478C 
46 -0.0527435C 
47 -0.0498869C 
48 -0.0351921C 
49 -0.0142419C 
50 0.10033108C 
51 -0.1479894SA
52 -0.3648711OA
53 0.05053081C 
54 -0.3752106OA
55 0.08364377C 
56 -0.0238791C 
57 -0.0473180C 
58 -0.0347870C 
59 -0.0315030C 


$$$$
