
     RDKit          3D

 28 28  0  0  0  0  0  0  0  0999 V2000
    6.0186    2.3803    2.0767 C   0  0  0  0  0  0  0  0  0  0  0  0
    4.9698    2.1546    1.0266 C   0  0  0  0  0  3  0  0  0  0  0  0
    5.5323    1.3414   -0.1075 C   0  0  0  0  0  0  0  0  0  0  0  0
    6.0225    0.0038    0.3077 C   0  0  2  0  0  0  0  0  0  0  0  0
    6.5535   -0.6502   -0.8285 O   0  0  0  0  0  0  0  0  0  0  0  0
    4.9514   -0.9460    0.8251 C   0  0  2  0  0  0  0  0  0  0  0  0
    5.5597   -2.1589    1.2215 O   0  0  0  0  0  0  0  0  0  0  0  0
    4.0453   -1.2686   -0.3776 C   0  0  0  0  0  3  0  0  0  0  0  0
    3.3016   -0.0282   -0.7535 C   0  0  1  0  0  0  0  0  0  0  0  0
    2.6214   -0.1702   -1.9426 O   0  0  0  0  0  0  0  0  0  0  0  0
    2.3497    0.2680    0.4116 C   0  0  0  0  0  3  0  0  0  0  0  0
    1.4045   -0.9201    0.5846 C   0  0  0  0  0  3  0  0  0  0  0  0
    0.1475   -0.3800    1.0841 N   0  0  0  0  0  0  0  0  0  0  0  0
   -0.3775    0.5029    0.0392 C   0  0  0  0  0  3  0  0  0  0  0  0
   -1.1492   -0.3456   -0.9482 C   0  0  0  0  0  0  0  0  0  0  0  0
   -2.5813   -0.3974   -0.4658 C   0  0  1  0  0  0  0  0  0  0  0  0
   -3.2861   -1.1828   -1.3834 O   0  0  0  0  0  0  0  0  0  0  0  0
   -2.6709   -0.9414    0.8576 N   0  0  0  0  0  0  0  0  0  0  0  0
   -3.3557   -2.1971    0.9377 C   0  0  0  0  0  3  0  0  0  0  0  0
   -4.7214   -2.1026    0.7390 O   0  0  0  0  0  0  0  0  0  0  0  0
   -5.1584   -0.8637    0.8145 O   0  0  0  0  0  0  0  0  0  0  0  0
   -5.2095   -0.3277   -0.4677 C   0  0  1  0  0  0  0  0  0  0  0  0
   -6.5079   -0.3405   -0.9530 O   0  0  0  0  0  0  0  0  0  0  0  0
   -4.6198    1.0554   -0.4171 C   0  0  2  0  0  0  0  0  0  0  0  0
   -5.1390    1.8958   -1.4094 O   0  0  0  0  0  0  0  0  0  0  0  0
   -3.1102    1.0245   -0.4707 C   0  0  1  0  0  0  0  0  0  0  0  0
   -2.5744    1.6764    0.6367 O   0  0  0  0  0  0  0  0  0  0  0  0
   -3.0165    2.9180    0.6605 O   0  0  0  0  0  0  0  0  0  0  0  0
  1  2  1  0
  2  3  1  0
  3  4  1  0
  4  5  1  6
  4  6  1  0
  6  7  1  6
  6  8  1  0
  8  9  1  0
  9 10  1  6
  9 11  1  0
 11 12  1  0
 12 13  1  0
 13 14  1  0
 14 15  1  0
 15 16  1  0
 16 17  1  6
 16 18  1  0
 18 19  1  0
 19 20  1  0
 20 21  1  0
 21 22  1  0
 22 23  1  1
 22 24  1  0
 24 25  1  6
 24 26  1  0
 26 27  1  1
 27 28  1  0
 26 16  1  0
M  RAD  6   2   2   8   2  11   2  12   2  14   2  19   2
M  END
>  <fragInfo>  (1) 
16 17 18 19 20 21 22 23 24 25 26
1 2
3
4 5
6 7
8
9 10
11
12
13
14
15
27 28


>  <torsionInfo>  (1) 
15 16 11 0
26 27 0 12
2 3 1 2
3 4 2 3
4 6 3 4
6 8 4 5
8 9 5 6
9 11 6 7
11 12 7 8
12 13 8 9
13 14 9 10
14 15 10 11


>  <atomInfo>  (1) 
1  -0.0621560C 
2  -0.0390459C 
3  -0.0215962C 
4  0.08051950C 
5  -0.3904119OA
6  0.08561769C 
7  -0.3900262OA
8  0.02159437C 
9  0.06460628C 
10 -0.3923559OA
11 0.00892743C 
12 0.02851184C 
13 -0.3075537NA
14 0.02675154C 
15 0.00952716C 
16 0.15160944C 
17 -0.3727001OA
18 -0.2555626NA
19 0.18879049C 
20 -0.2102227OA
21 -0.1999274OA
22 0.21747141C 
23 -0.3635663OA
24 0.14110146C 
25 -0.3846563OA
26 0.16561608C 
27 -0.2285535OA
28 -0.2512756OA


$$$$
