
     RDKit          3D

  9  9  0  0  0  0  0  0  0  0999 V2000
    1.7626    0.4681    0.2119 O   0  0  0  0  0  0  0  0  0  0  0  0
    0.7178    1.1478    0.6564 O   0  0  0  0  0  0  0  0  0  0  0  0
   -0.1123    1.5555   -0.3650 C   0  0  0  0  0  3  0  0  0  0  0  0
   -0.3973    0.5826   -1.2934 O   0  0  0  0  0  0  0  0  0  0  0  0
   -1.2661   -0.3849   -0.8633 C   0  0  2  0  0  0  0  0  0  0  0  0
   -2.5408    0.1432   -0.2801 C   0  0  0  0  0  0  0  0  0  0  0  0
   -0.6242   -1.2941    0.1501 C   0  0  0  0  0  3  0  0  0  0  0  0
    0.8328   -1.4610   -0.1872 C   0  0  0  0  0  3  0  0  0  0  0  0
    1.6275   -0.7573    0.6992 O   0  0  0  0  0  0  0  0  0  0  0  0
  1  2  1  0
  2  3  1  0
  3  4  1  0
  4  5  1  0
  5  6  1  1
  5  7  1  0
  7  8  1  0
  8  9  1  0
  9  1  1  0
M  RAD  3   3   2   7   2   8   2
M  END
>  <fragInfo>  (1) 
1 2 3 4 5 6 7 8 9


>  <torsionInfo>  (1) 


>  <atomInfo>  (1) 
1  -0.0647723OA
2  -0.1681481OA
3  0.24897420C 
4  -0.3421671OA
5  0.06414353C 
6  -0.0381562C 
7  0.02525887C 
8  0.13155154C 
9  -0.1994165OA


$$$$
