
     RDKit          3D

 47 47  0  0  0  0  0  0  0  0999 V2000
   -0.0009    7.9035   -1.9039 C   0  0  0  0  0  0  0  0  0  0  0  0
   -0.9614    7.0778   -1.1149 C   0  0  0  0  0  0  0  0  0  0  0  0
   -2.3574    7.2414   -1.6334 C   0  0  0  0  0  0  0  0  0  0  0  0
   -0.5787    5.6173   -1.1189 C   0  0  0  0  0  0  0  0  0  0  0  0
   -1.5700    4.8008   -0.3108 C   0  0  0  0  0  0  0  0  0  0  0  0
   -1.1970    3.3352   -0.3073 C   0  0  0  0  0  0  0  0  0  0  0  0
    0.1686    3.1676    0.2978 C   0  0  1  0  0  0  0  0  0  0  0  0
    0.1528    3.6870    1.7081 C   0  0  0  0  0  0  0  0  0  0  0  0
    0.7670    1.8358    0.1222 C   0  0  0  0  0  3  0  0  0  0  0  0
    0.0398    0.6844    0.6880 C   0  0  1  0  0  0  0  0  0  0  0  0
   -1.3173    0.5855    0.0715 C   0  0  0  0  0  0  0  0  0  0  0  0
   -2.3300   -0.1070    0.8997 C   0  0  1  0  0  0  0  0  0  0  0  0
   -2.9864    0.7125    1.9659 C   0  0  0  0  0  0  0  0  0  0  0  0
   -3.7240    1.9058    1.4597 C   0  0  0  0  0  3  0  0  0  0  0  0
   -4.8324    1.4965    0.5160 C   0  0  0  0  0  0  0  0  0  0  0  0
   -5.8098    0.6041    1.2274 C   0  0  0  0  0  0  0  0  0  0  0  0
   -3.3764   -0.8123    0.1146 C   0  0  1  0  0  0  0  0  0  0  0  0
   -3.0229   -0.9890   -1.3402 C   0  0  0  0  0  0  0  0  0  0  0  0
   -4.1631   -1.7159   -2.0122 C   0  0  0  0  0  0  0  0  0  0  0  0
   -5.4708   -0.9245   -1.9082 C   0  0  2  0  0  0  0  0  0  0  0  0
   -7.0313   -2.0297   -2.8825 I   0  0  0  0  0  0  0  0  0  0  0  0
   -5.3454    0.3935   -2.6492 C   0  0  0  0  0  0  0  0  0  0  0  0
   -3.8226   -2.1097    0.7492 C   0  0  0  0  0  0  0  0  0  0  0  0
   -2.5578   -2.8185    1.2234 C   0  0  2  0  0  0  0  0  0  0  0  0
   -2.8646   -4.2072    1.7341 C   0  0  0  0  0  2  0  0  0  0  0  0
   -1.9725   -1.9689    2.3302 C   0  0  0  0  0  3  0  0  0  0  0  0
   -0.8035   -2.5350    2.7775 O   0  0  0  0  0  0  0  0  0  0  0  0
    0.1943   -2.6290    1.8095 C   0  0  0  0  0  0  0  0  0  0  0  0
    0.9684   -1.3283    1.8537 C   0  0  0  0  0  3  0  0  0  0  0  0
    0.8757   -0.5548    0.5862 C   0  0  1  0  0  0  0  0  0  0  0  0
    0.2378   -1.4223   -0.5112 C   0  0  0  0  0  2  0  0  0  0  0  0
    2.2932   -0.2086    0.1300 C   0  0  1  0  0  0  0  0  0  0  0  0
    1.9278    0.4581   -1.3076 C   0  0  0  0  0  0  0  0  0  0  0  0
    3.2472    0.8696   -1.9158 C   0  0  0  0  0  2  0  0  0  0  0  0
    2.8095    0.9798    0.8655 C   0  0  0  0  0  0  0  0  0  0  0  0
    2.8692    0.8714    2.3503 C   0  0  0  0  0  0  0  0  0  0  0  0
    3.1748   -1.2333   -0.2158 C   0  0  0  0  0  0  0  0  0  0  0  0
    3.8088   -2.3728    0.2687 C   0  0  1  0  0  0  0  0  0  0  0  0
    4.6662   -2.9467   -0.9005 C   0  0  1  0  0  0  0  0  0  0  0  0
    5.4027   -4.1676   -0.5762 C   0  0  0  0  0  2  0  0  0  0  0  0
    3.8260   -3.0161   -2.1516 C   0  0  0  0  0  3  0  0  0  0  0  0
    4.7101   -3.5778   -3.2429 C   0  0  0  0  0  2  0  0  0  0  0  0
    4.7258   -2.3906    1.4487 C   0  0  0  0  0  0  0  0  0  0  0  0
    5.2116   -3.8531    1.6218 C   0  0  0  0  0  2  0  0  0  0  0  0
    4.0741   -2.0936    2.7791 C   0  0  0  0  0  2  0  0  0  0  0  0
    5.9570   -1.5855    1.2398 C   0  0  0  0  0  0  0  0  0  0  0  0
    5.9877   -0.6298    0.5107 O   0  0  0  0  0  0  0  0  0  0  0  0
  1  2  1  0
  2  3  1  0
  2  4  1  0
  4  5  1  0
  5  6  1  0
  6  7  1  0
  7  8  1  1
  7  9  1  0
 10  9  1  6
 10 11  1  0
 11 12  1  0
 12 13  1  1
 13 14  1  0
 14 15  1  0
 15 16  1  0
 12 17  1  0
 17 18  1  6
 18 19  1  0
 19 20  1  0
 20 21  1  0
 20 22  1  6
 17 23  1  0
 23 24  1  0
 24 25  1  1
 24 26  1  0
 26 27  1  0
 27 28  1  0
 28 29  1  0
 29 30  1  0
 30 31  1  6
 30 32  1  0
 32 33  1  6
 33 34  1  0
 32 35  1  0
 35 36  1  0
 32 37  1  0
 38 37  1  6
 38 39  1  0
 39 40  1  1
 39 41  1  0
 41 42  1  0
 38 43  1  0
 43 44  1  0
 43 45  1  0
 43 46  1  0
 46 47  2  0
 30 10  1  0
M  RAD  8   9   2  14   2  25   3  26   2  29   2  31   3  34   3  40   3
M  RAD  4  41   2  42   3  44   3  45   3
M  END
>  <fragInfo>  (1) 
10 11 12 17 23 24 25 26 27 28 29 30 31
1 2 3
4
5
6
7 8
9
13
14
15 16
18
19
20 21 22
32
33 34
35 36
37
38
39 40
41 42
43 44 45
46 47


>  <torsionInfo>  (1) 
9 10 6 0
12 13 0 7
17 18 0 10
30 32 0 13
2 4 1 2
4 5 2 3
5 6 3 4
6 7 4 5
7 9 5 6
13 14 7 8
14 15 8 9
18 19 10 11
19 20 11 12
32 33 13 14
32 35 13 15
32 37 13 16
37 38 16 17
38 39 17 18
38 43 17 20
39 41 18 19
43 46 20 21


>  <atomInfo>  (1) 
1  -0.0627736C 
2  -0.0471324C 
3  -0.0627736C 
4  -0.0509643C 
5  -0.0527981C 
6  -0.0504158C 
7  -0.0408639C 
8  -0.0622234C 
9  -0.0320395C 
10 -0.0309114C 
11 -0.0464557C 
12 -0.0380033C 
13 -0.0470604C 
14 -0.0385728C 
15 -0.0530373C 
16 -0.0651078C 
17 -0.0381554C 
18 -0.0491830C 
19 -0.0413948C 
20 0.00813839C 
21 -0.0829229I 
22 -0.0534246C 
23 -0.0444598C 
24 -0.0087277C 
25 -0.0290182C 
26 0.08701546C 
27 -0.3748846OA
28 0.05085046C 
29 -0.0054644C 
30 -0.0121514C 
31 -0.0271555C 
32 -0.0228395C 
33 -0.0436240C 
34 -0.0346010C 
35 -0.0498739C 
36 -0.0648313C 
37 -0.0429191C 
38 -0.0245489C 
39 -0.0307684C 
40 -0.0311727C 
41 -0.0311729C 
42 -0.0311862C 
43 0.03590697C 
44 -0.0202844C 
45 -0.0202844C 
46 0.12653029C 
47 -0.3027385OA


$$$$
