
     RDKit          3D

 25 24  0  0  0  0  0  0  0  0999 V2000
   -8.0191    0.1567   -1.4761 C   0  0  0  0  0  0  0  0  0  0  0  0
   -7.6658   -0.2344   -0.0637 C   0  0  0  0  0  0  0  0  0  0  0  0
   -7.6976    0.9419    0.8812 C   0  0  0  0  0  0  0  0  0  0  0  0
   -6.3823   -1.0124    0.0163 C   0  0  0  0  0  0  0  0  0  0  0  0
   -5.1995   -0.2401   -0.5124 C   0  0  0  0  0  0  0  0  0  0  0  0
   -4.9525    1.0330    0.2303 C   0  0  0  0  0  0  0  0  0  0  0  0
   -3.7641    1.7255   -0.3647 C   0  0  1  0  0  0  0  0  0  0  0  0
   -3.4406    3.0289    0.3288 C   0  0  0  0  0  0  0  0  0  0  0  0
   -2.5256    0.8726   -0.3864 C   0  0  0  0  0  3  0  0  0  0  0  0
   -2.1660    0.4795    1.0357 C   0  0  0  0  0  0  0  0  0  0  0  0
   -0.9200   -0.3820    1.0494 C   0  0  0  0  0  0  0  0  0  0  0  0
   -1.1931   -1.6178    0.2393 C   0  0  0  0  0  3  0  0  0  0  0  0
    0.0411   -2.4867    0.2448 C   0  0  0  0  0  2  0  0  0  0  0  0
    1.1372   -1.8128    1.0020 C   0  0  0  0  0  3  0  0  0  0  0  0
    1.4375   -0.4651    0.4111 C   0  0  0  0  0  3  0  0  0  0  0  0
    2.7552   -0.4400   -0.3052 C   0  0  0  0  0  3  0  0  0  0  0  0
    3.1424   -1.8020   -0.7960 C   0  0  0  0  0  0  0  0  0  0  0  0
    4.4709   -1.7409   -1.5111 C   0  0  1  0  0  0  0  0  0  0  0  0
    4.4670   -0.8701   -2.6496 N   0  0  0  0  0  1  0  0  0  0  0  0
    5.6339   -1.5493   -0.5922 C   0  0  0  0  0  3  0  0  0  0  0  0
    5.5786   -0.2906    0.2162 C   0  0  0  0  0  0  0  0  0  0  0  0
    5.5432    0.9511   -0.6183 C   0  0  0  0  0  0  0  0  0  0  0  0
    5.4888    2.1526    0.2919 C   0  0  0  0  0  0  0  0  0  0  0  0
    6.6749    2.2124    1.1857 C   0  0  0  0  0  0  0  0  0  0  0  0
    7.5553    1.3899    1.1645 O   0  0  0  0  0  0  0  0  0  0  0  0
  1  2  1  0
  2  3  1  0
  2  4  1  0
  4  5  1  0
  5  6  1  0
  6  7  1  0
  7  8  1  1
  7  9  1  0
  9 10  1  0
 10 11  1  0
 11 12  1  0
 12 13  1  0
 13 14  1  0
 14 15  1  0
 15 16  1  0
 16 17  1  0
 17 18  1  0
 18 19  1  6
 18 20  1  0
 20 21  1  0
 21 22  1  0
 22 23  1  0
 23 24  1  0
 24 25  2  0
M  RAD  8   9   2  12   2  13   3  14   2  15   2  16   2  19   2  20   2
M  CHG  1  19   1
M  END
>  <fragInfo>  (1) 
1 2 3
4
5
6
7 8
9
10
11
12
13
14
15
16
17
18 19
20
21
22
23
24 25


>  <torsionInfo>  (1) 
2 4 0 1
4 5 1 2
5 6 2 3
6 7 3 4
7 9 4 5
9 10 5 6
10 11 6 7
11 12 7 8
12 13 8 9
13 14 9 10
14 15 10 11
15 16 11 12
16 17 12 13
17 18 13 14
18 20 14 15
20 21 15 16
21 22 16 17
22 23 17 18
23 24 18 19


>  <atomInfo>  (1) 
1  -0.0627736C 
2  -0.0471324C 
3  -0.0627736C 
4  -0.0509643C 
5  -0.0527983C 
6  -0.0504266C 
7  -0.0411603C 
8  -0.0622342C 
9  -0.0357397C 
10 -0.0496225C 
11 -0.0492928C 
12 -0.0308762C 
13 -0.0096592C 
14 -0.0272071C 
15 -0.0309220C 
16 -0.0282308C 
17 0.02214179C 
18 0.28008554C 
19 0.42191018N 
20 0.03921098C 
21 -0.0430969C 
22 -0.0461350C 
23 0.00302304C 
24 0.11949041C 
25 -0.3034029OA


$$$$
