
     RDKit          3D

 40 41  0  0  0  0  0  0  0  0999 V2000
    0.9399    1.3228   -0.1430 C   0  0  0  0  0  0  0  0  0  0  0  0
   -0.0766    1.6914    0.8880 C   0  0  1  0  0  0  0  0  0  0  0  0
   -0.1749    3.1620    1.1510 C   0  0  0  0  0  0  0  0  0  0  0  0
   -1.3829    1.0490    0.5585 C   0  0  0  0  0  0  0  0  0  0  0  0
   -1.5347    0.6834   -0.8930 C   0  0  0  0  0  0  0  0  0  0  0  0
   -3.0020    0.6155   -1.2428 C   0  0  2  0  0  0  0  0  0  0  0  0
   -3.7197    1.6454   -0.4211 C   0  0  1  0  0  0  0  0  0  0  0  0
   -5.0009    2.1165   -1.0178 C   0  0  0  0  0  0  0  0  0  0  0  0
   -3.8085    1.2253    1.0063 C   0  0  0  0  0  3  0  0  0  0  0  0
   -4.9170    1.9091    1.7716 C   0  0  0  0  0  0  0  0  0  0  0  0
   -5.9586    0.8544    2.0845 C   0  0  0  0  0  0  0  0  0  0  0  0
   -6.9699    0.8862    0.9395 C   0  0  2  0  0  0  0  0  0  0  0  0
   -7.9983    1.9680    1.1932 C   0  0  0  0  0  2  0  0  0  0  0  0
   -7.5762   -0.4639    0.7238 C   0  0  0  0  0  0  0  0  0  0  0  0
   -7.0146   -1.2089   -0.4370 C   0  0  1  0  0  0  0  0  0  0  0  0
   -7.1922   -0.5793   -1.7050 N   0  0  0  0  0  1  0  0  0  0  0  0
   -5.6686   -1.8051   -0.2109 C   0  0  0  0  0  3  0  0  0  0  0  0
   -4.5788   -0.8135    0.0299 C   0  0  0  0  0  0  0  0  0  0  0  0
   -3.5774   -0.7641   -1.1086 C   0  0  1  0  0  0  0  0  0  0  0  0
   -4.2222   -1.1056   -2.2989 O   0  0  0  0  0  0  0  0  0  0  0  0
   -2.5017   -1.8036   -0.8744 C   0  0  1  0  0  0  0  0  0  0  0  0
   -1.5335   -1.8501   -2.0119 C   0  0  0  0  0  0  0  0  0  0  0  0
   -1.8573   -1.6628    0.3301 O   0  0  0  0  0  0  0  0  0  0  0  0
   -0.5738   -1.9285    0.2318 O   0  0  0  0  0  0  0  0  0  0  0  0
    0.2175   -0.9020    0.7708 C   0  0  0  0  0  0  0  0  0  0  0  0
    0.8338   -0.1608   -0.4161 C   0  0  2  0  0  0  0  0  0  0  0  0
    2.2449   -0.6869   -0.5628 C   0  0  0  0  0  3  0  0  0  0  0  0
    2.9970   -0.4768    0.5916 O   0  0  0  0  0  0  0  0  0  0  0  0
    2.9762   -1.6207    1.3798 C   0  0  0  0  0  3  0  0  0  0  0  0
    4.2175   -2.0625    1.7540 O   0  0  0  0  0  0  0  0  0  0  0  0
    5.2282   -1.7519    0.8599 C   0  0  0  0  0  0  0  0  0  0  0  0
    5.3971   -0.2800    0.6427 C   0  0  1  0  0  0  0  0  0  0  0  0
    5.7346    0.4666    1.9122 C   0  0  0  0  0  2  0  0  0  0  0  0
    6.6011   -0.1048   -0.2889 C   0  0  0  0  0  0  0  0  0  0  0  0
    7.7827   -0.7330    0.4614 C   0  0  0  0  0  0  0  0  0  0  0  0
    9.0529   -0.6292   -0.3529 C   0  0  1  0  0  0  0  0  0  0  0  0
    8.8293   -1.3644   -1.6558 C   0  0  0  0  0  2  0  0  0  0  0  0
    9.2672    0.8649   -0.6171 C   0  0  0  0  0  0  0  0  0  0  0  0
    9.3897    1.5024    0.7252 C   0  0  0  0  0  0  0  0  0  0  0  0
    9.1309    2.7956    0.8840 C   0  0  0  0  0  3  0  0  0  0  0  0
  1  2  1  0
  2  3  1  6
  2  4  1  0
  4  5  1  0
  6  5  1  1
  6  7  1  0
  7  8  1  6
  7  9  1  0
  9 10  1  0
 10 11  1  0
 11 12  1  0
 12 13  1  1
 12 14  1  0
 14 15  1  0
 15 16  1  6
 15 17  1  0
 17 18  1  0
 18 19  1  0
 19 20  1  6
 19 21  1  0
 21 22  1  6
 21 23  1  0
 23 24  1  0
 24 25  1  0
 25 26  1  0
 26 27  1  1
 27 28  1  0
 28 29  1  0
 29 30  1  0
 30 31  1  0
 31 32  1  0
 32 33  1  1
 32 34  1  0
 34 35  1  0
 35 36  1  0
 36 37  1  6
 36 38  1  0
 38 39  1  0
 39 40  2  0
 26  1  1  0
 19  6  1  0
M  RAD  8   9   2  13   3  16   2  17   2  27   2  29   2  33   3  37   3
M  CHG  1  16   1
M  RAD  1  40   2
M  END
>  <fragInfo>  (1) 
1 2 3 4 5 6 7 8 9 10 11 12 13 14 15 16 17 18 19 20 21 22 23 24 25 26
27
28
29
30
31
32 33
34
35
36 37
38
39 40


>  <torsionInfo>  (1) 
26 27 0 1
27 28 1 2
28 29 2 3
29 30 3 4
30 31 4 5
31 32 5 6
32 34 6 7
34 35 7 8
35 36 8 9
36 38 9 10
38 39 10 11


>  <atomInfo>  (1) 
1  -0.0429350C 
2  -0.0438195C 
3  -0.0624961C 
4  -0.0503157C 
5  -0.0470786C 
6  -0.0068618C 
7  -0.0354727C 
8  -0.0618602C 
9  -0.0353555C 
10 -0.0496275C 
11 -0.0496340C 
12 -0.0316032C 
13 -0.0315489C 
14 0.02186508C 
15 0.28018698C 
16 0.42191218N 
17 0.04214440C 
18 -0.0113923C 
19 0.09725830C 
20 -0.3867457OA
21 0.11902201C 
22 -0.0325905C 
23 -0.2306054OA
24 -0.2359583OA
25 0.08760702C 
26 0.01465907C 
27 0.09263824C 
28 -0.3414742OA
29 0.20932805C 
30 -0.3476654OA
31 0.05306375C 
32 -0.0142953C 
33 -0.0294303C 
34 -0.0476735C 
35 -0.0495063C 
36 -0.0345261C 
37 -0.0314824C 
38 -0.0316232C 
39 -0.0842617C 
40 -0.0665821C 


$$$$
