
     RDKit          3D

 28 28  0  0  0  0  0  0  0  0999 V2000
    8.8154    0.4073   -0.8281 C   0  0  0  0  0  0  0  0  0  0  0  0
    7.5888   -0.3964   -0.9256 C   0  0  0  0  0  0  0  0  0  0  0  0
    6.5968    0.0259   -1.9235 C   0  0  0  0  0  0  0  0  0  0  0  0
    7.1049   -0.9717    0.3473 C   0  0  0  0  0  0  0  0  0  0  0  0
    5.8432   -1.7719    0.2086 C   0  0  0  0  0  0  0  0  0  0  0  0
    4.7314   -0.8776   -0.2671 C   0  0  0  0  0  0  0  0  0  0  0  0
    4.3893    0.2325    0.6855 C   0  0  1  0  0  0  0  0  0  0  0  0
    5.5116    1.1753    0.9948 C   0  0  0  0  0  0  0  0  0  0  0  0
    3.1545    0.9427    0.1934 C   0  0  0  0  0  3  0  0  0  0  0  0
    2.0178   -0.0468    0.1261 C   0  0  0  0  0  3  0  0  0  0  0  0
    0.9989    0.3477   -0.9155 C   0  0  0  0  0  0  0  0  0  0  0  0
    0.3868    1.7031   -0.6340 C   0  0  0  0  0  3  0  0  0  0  0  0
   -0.2918    1.6383    0.7108 C   0  0  0  0  0  3  0  0  0  0  0  0
    0.6928    1.8858    1.8296 C   0  0  0  0  0  0  0  0  0  0  0  0
   -1.0033    0.3486    0.9470 C   0  0  0  0  0  0  0  0  0  0  0  0
   -2.0807    0.1117   -0.0898 C   0  0  2  0  0  0  0  0  0  0  0  0
   -3.0801    1.2655    0.0026 C   0  0  0  0  0  3  0  0  0  0  0  0
   -2.8652   -1.1485    0.2047 C   0  0  0  0  0  0  0  0  0  0  0  0
   -3.4461   -1.6102   -1.0862 C   0  0  0  0  0  0  0  0  0  0  0  0
   -4.7218   -1.5383   -1.3960 C   0  0  0  0  0  0  0  0  0  0  0  0
   -5.1360   -2.0515   -2.7442 C   0  0  0  0  0  0  0  0  0  0  0  0
   -5.7873   -0.9971   -0.5360 C   0  0  1  0  0  0  0  0  0  0  0  0
   -5.6128   -1.2158    0.8034 O   0  0  0  0  0  0  0  0  0  0  0  0
   -6.2504    0.3684   -0.9054 C   0  0  0  0  0  0  0  0  0  0  0  0
   -5.7494    1.4611   -0.0162 C   0  0  0  0  0  0  0  0  0  0  0  0
   -5.1908    0.9653    1.2935 C   0  0  0  0  0  0  0  0  0  0  0  0
   -3.7129    1.2685    1.3566 C   0  0  1  0  0  0  0  0  0  0  0  0
   -2.9037   -0.0053    2.5636 Br  0  0  0  0  0  0  0  0  0  0  0  0
  1  2  1  0
  2  3  1  0
  2  4  1  0
  4  5  1  0
  5  6  1  0
  6  7  1  0
  7  8  1  6
  7  9  1  0
  9 10  1  0
 10 11  1  0
 11 12  1  0
 12 13  1  0
 13 14  1  0
 13 15  1  0
 16 15  1  1
 16 17  1  0
 16 18  1  0
 18 19  1  0
 19 20  2  3
 20 21  1  0
 20 22  1  0
 22 23  1  1
 22 24  1  0
 24 25  1  0
 25 26  1  0
 26 27  1  0
 27 28  1  1
 27 17  1  0
M  RAD  5   9   2  10   2  12   2  13   2  17   2
M  END
>  <fragInfo>  (1) 
16 17 18 19 20 21 22 23 24 25 26 27 28
1 2 3
4
5
6
7 8
9
10
11
12
13 14
15


>  <torsionInfo>  (1) 
15 16 11 0
2 4 1 2
4 5 2 3
5 6 3 4
6 7 4 5
7 9 5 6
9 10 6 7
10 11 7 8
11 12 8 9
12 13 9 10
13 15 10 11


>  <atomInfo>  (1) 
1  -0.0627736C 
2  -0.0471324C 
3  -0.0627736C 
4  -0.0509643C 
5  -0.0527981C 
6  -0.0504160C 
7  -0.0408749C 
8  -0.0622236C 
9  -0.0323479C 
10 -0.0346124C 
11 -0.0462025C 
12 -0.0317938C 
13 -0.0234981C 
14 -0.0588238C 
15 -0.0435851C 
16 -0.0331784C 
17 -0.0214908C 
18 -0.0315311C 
19 -0.0827590C 
20 -0.0490232C 
21 -0.0413824C 
22 0.07469709C 
23 -0.3887772OA
24 -0.0230605C 
25 -0.0494461C 
26 -0.0402512C 
27 0.01795309C 
28 -0.0887435Br


$$$$
