
     RDKit          3D

 12 12  0  0  0  0  0  0  0  0999 V2000
    2.1177   -2.1176    0.8343 C   0  0  0  0  0  0  0  0  0  0  0  0
    0.9997   -1.4954    0.1897 O   0  0  0  0  0  0  0  0  0  0  0  0
    0.9514   -0.1070    0.0074 C   0  0  0  0  0  0  0  0  0  0  0  0
    1.9726    0.7158    0.4386 C   0  0  0  0  0  0  0  0  0  0  0  0
    1.9091    2.0824    0.2504 C   0  0  0  0  0  0  0  0  0  0  0  0
    0.7911    2.5804   -0.3809 C   0  0  0  0  0  0  0  0  0  0  0  0
   -0.2320    1.7643   -0.8138 C   0  0  0  0  0  0  0  0  0  0  0  0
   -0.1723    0.3905   -0.6267 C   0  0  0  0  0  0  0  0  0  0  0  0
   -1.2651   -0.5112   -1.0846 C   0  0  0  0  0  0  0  0  0  0  0  0
   -2.0684   -0.9325    0.0797 C   0  0  0  0  0  0  0  0  0  0  0  0
   -3.2331   -1.8394   -0.0754 C   0  0  0  0  0  0  0  0  0  0  0  0
   -1.7706   -0.5304    1.1813 O   0  0  0  0  0  0  0  0  0  0  0  0
  1  2  1  0
  2  3  1  0
  3  4  2  0
  4  5  1  0
  5  6  2  0
  6  7  1  0
  7  8  2  0
  8  9  1  0
  9 10  1  0
 10 11  1  0
 10 12  2  0
  8  3  1  0
M  END
>  <fragInfo>  (1) 
3 4 5 6 7 8
1 2
9
10 11 12


>  <torsionInfo>  (1) 
2 3 1 0
8 9 0 2
9 10 2 3


>  <atomInfo>  (1) 
1  0.07752240C 
2  -0.4964637OA
3  0.12199310A 
4  -0.0196808A 
5  -0.0585646A 
6  -0.0617110A 
7  -0.0548997A 
8  0.00143621A 
9  0.03465891C 
10 0.13383842C 
11 -0.0053104C 
12 -0.2996532OA


$$$$
