
     RDKit          3D

 80 82  0  0  0  0  0  0  0  0999 V2000
   -3.8124   -2.7903    0.5589 C   0  0  2  0  0  0  0  0  0  0  0  0
   -2.7845   -3.4981   -0.2489 C   0  0  1  0  0  0  0  0  0  0  0  0
   -2.4702   -4.9277    0.1541 C   0  0  0  0  0  0  0  0  0  0  0  0
   -3.4998   -3.7750   -1.6207 C   0  0  0  0  0  0  0  0  0  0  0  0
   -2.6353   -3.0754   -2.7099 C   0  0  0  0  0  0  0  0  0  0  0  0
   -3.3067   -1.7349   -3.0458 C   0  0  0  0  0  0  0  0  0  0  0  0
   -2.4246   -0.5123   -2.5167 C   0  0  1  0  0  0  0  0  0  0  0  0
   -1.6171   -1.2724   -1.4248 C   0  0  0  0  0  0  0  0  0  0  0  0
   -0.6842   -0.6388   -0.5562 C   0  0  0  0  0  0  0  0  0  0  0  0
   -1.5897   -0.2525   -3.7618 C   0  0  0  0  0  0  0  0  0  0  0  0
   -0.2196   -1.0566   -3.7051 C   0  0  0  0  0  0  0  0  0  0  0  0
    0.7702   -0.3660   -2.8474 C   0  0  0  0  0  3  0  0  0  0  0  0
    1.1372    1.0748   -3.2589 C   0  0  0  0  0  2  0  0  0  0  0  0
    0.6764    2.0012   -2.1190 C   0  0  0  0  0  0  0  0  0  0  0  0
    1.5602    1.7445   -0.9369 C   0  0  2  0  0  0  0  0  0  0  0  0
    0.8428    2.1081    0.3863 C   0  0  0  0  0  2  0  0  0  0  0  0
    2.7664    2.8039   -1.1709 C   0  0  2  0  0  0  0  0  0  0  0  0
    3.7428    2.1009   -1.9562 C   0  0  0  0  0  0  0  0  0  0  0  0
    3.1494    3.4480    0.1132 C   0  0  0  0  0  0  0  0  0  0  0  0
    4.4827    3.4157    0.4620 O   0  0  0  0  0  0  0  0  0  0  0  0
    5.3452    2.8410   -0.4026 C   0  0  0  0  0  3  0  0  0  0  0  0
    6.0432    1.6170    0.0341 C   0  0  2  0  0  0  0  0  0  0  0  0
    7.1220    1.1554   -0.9689 C   0  0  0  0  0  0  0  0  0  0  0  0
    7.8458   -0.0441   -0.6222 C   0  0  0  0  0  3  0  0  0  0  0  0
    8.8575   -0.4344   -1.6696 C   0  0  0  0  0  2  0  0  0  0  0  0
   10.1035   -1.0573   -1.0546 C   0  0  0  0  0  3  0  0  0  0  0  0
   11.2995   -1.0757   -1.9391 C   0  0  0  0  0  0  0  0  0  0  0  0
   12.4402   -1.4955   -0.9013 C   0  0  0  0  0  3  0  0  0  0  0  0
   12.1963   -0.4583    0.2186 C   0  0  0  0  0  0  0  0  0  0  0  0
   13.1320    0.3391    0.4894 C   0  0  0  0  0  0  0  0  0  0  0  0
   13.9602    1.0258    0.7161 C   0  0  0  0  0  0  0  0  0  0  0  0
   15.2901    2.1677    1.0893 C   0  0  0  0  0  3  0  0  0  0  0  0
   15.4364    2.5945   -0.2129 O   0  0  0  0  0  0  0  0  0  0  0  0
   16.1674    1.4731   -0.8787 C   0  0  0  0  0  2  0  0  0  0  0  0
   17.5414    1.7741   -0.6965 O   0  0  0  0  0  0  0  0  0  0  0  0
   17.4962    3.2376   -0.8878 C   0  0  0  0  0  3  0  0  0  0  0  0
   18.6986    3.7266   -0.4142 O   0  0  0  0  0  0  0  0  0  0  0  0
   18.8424    5.0340   -0.8363 C   0  0  0  0  0  2  0  0  0  0  0  0
    5.1936    0.5187    0.2996 O   0  0  0  0  0  0  0  0  0  0  0  0
    5.6421   -0.3104    1.3512 C   0  0  0  0  0  0  0  0  0  0  0  0
    6.1786   -1.6392    0.8024 C   0  0  0  0  0  0  0  0  0  0  0  0
    5.2803   -2.0458   -0.3780 C   0  0  0  0  0  0  0  0  0  0  0  0
    3.8593   -2.2444    0.2248 C   0  0  0  0  0  0  0  0  0  0  0  0
    3.4712   -1.1651    1.1698 C   0  0  0  0  0  0  0  0  0  0  0  0
    1.9884   -1.2516    1.4134 C   0  0  0  0  0  0  0  0  0  0  0  0
    1.4285   -0.3695    2.5235 C   0  0  0  0  0  3  0  0  0  0  0  0
    0.0244   -0.3629    2.2808 O   0  0  0  0  0  0  0  0  0  0  0  0
   -0.4334   -1.7175    2.6408 C   0  0  0  0  0  2  0  0  0  0  0  0
    0.4593   -2.5479    1.8317 O   0  0  0  0  0  0  0  0  0  0  0  0
   -0.1385   -3.6813    1.7630 O   0  0  0  0  0  0  0  0  0  0  0  0
   -1.4778   -3.7387    2.2446 C   0  0  0  0  0  0  0  0  0  0  0  0
   -2.1363   -2.5591    2.2668 O   0  0  0  0  0  0  0  0  0  0  0  0
   -3.3683   -2.2929    1.8975 C   0  0  2  0  0  0  0  0  0  0  0  0
   -4.5290   -2.7476    2.4391 O   0  0  0  0  0  0  0  0  0  0  0  0
   -4.8498   -3.6053    1.3225 C   0  0  1  0  0  0  0  0  0  0  0  0
   -6.0946   -3.3288    0.8217 O   0  0  0  0  0  0  0  0  0  0  0  0
   -6.9458   -2.7679    1.7204 C   0  0  0  0  0  3  0  0  0  0  0  0
   -7.2215   -1.4044    1.5236 O   0  0  0  0  0  0  0  0  0  0  0  0
   -8.0262   -0.8738    2.4150 O   0  0  0  0  0  0  0  0  0  0  0  0
   -9.1635   -0.2336    1.8917 C   0  0  0  0  0  0  0  0  0  0  0  0
  -10.3769   -1.4478    1.5012 S   0  0  0  0  0  0  0  0  0  0  0  0
  -11.6079   -1.1137    0.2959 C   0  0  0  0  0  3  0  0  0  0  0  0
  -12.0615    0.2833    0.0886 C   0  0  0  0  0  0  0  0  0  0  0  0
  -13.2578    0.1733   -0.8594 C   0  0  0  0  0  3  0  0  0  0  0  0
  -13.9625    1.3078   -1.0769 O   0  0  0  0  0  0  0  0  0  0  0  0
  -14.9273    1.6319   -0.1671 C   0  0  0  0  0  2  0  0  0  0  0  0
  -14.4481    2.5501    0.8034 O   0  0  0  0  0  0  0  0  0  0  0  0
  -13.0573    2.7991    0.5058 C   0  0  0  0  0  3  0  0  0  0  0  0
  -12.7910    4.1177    0.9047 O   0  0  0  0  0  0  0  0  0  0  0  0
  -11.4443    4.0812    1.4466 C   0  0  0  0  0  3  0  0  0  0  0  0
  -10.5130    4.0402    0.4018 O   0  0  0  0  0  0  0  0  0  0  0  0
   -9.7484    2.8168    0.5029 C   0  0  0  0  0  3  0  0  0  0  0  0
   -9.5406    2.3891   -0.9149 C   0  0  0  0  0  3  0  0  0  0  0  0
   -9.0659    0.9704   -1.0562 C   0  0  0  0  0  0  0  0  0  0  0  0
   -7.6027    0.7896   -0.4319 C   0  0  0  0  0  3  0  0  0  0  0  0
   -7.0327   -0.2216   -1.2608 O   0  0  0  0  0  0  0  0  0  0  0  0
   -5.7935    0.0162   -1.4381 O   0  0  0  0  0  0  0  0  0  0  0  0
   -5.0682    0.3737   -0.2922 C   0  0  0  0  0  3  0  0  0  0  0  0
   -4.2046   -0.5928    0.1396 O   0  0  0  0  0  0  0  0  0  0  0  0
   -4.5387   -1.8128   -0.2384 O   0  0  0  0  0  0  0  0  0  0  0  0
  1  2  1  0
  2  3  1  1
  2  4  1  0
  4  5  1  0
  5  6  1  0
  6  7  1  0
  7  8  1  1
  8  9  1  0
  7 10  1  0
 10 11  1  0
 11 12  1  0
 12 13  1  0
 13 14  1  0
 14 15  1  0
 15 16  1  1
 15 17  1  0
 17 18  1  1
 17 19  1  0
 19 20  1  0
 20 21  1  0
 21 22  1  0
 22 23  1  6
 23 24  1  0
 24 25  1  0
 25 26  1  0
 26 27  1  0
 27 28  1  0
 28 29  1  0
 29 30  1  0
 30 31  3  0
 31 32  1  0
 32 33  1  0
 33 34  1  0
 34 35  1  0
 35 36  1  0
 36 37  1  0
 37 38  1  0
 22 39  1  0
 39 40  1  0
 40 41  1  0
 41 42  1  0
 42 43  1  0
 43 44  1  0
 44 45  1  0
 45 46  1  0
 46 47  1  0
 47 48  1  0
 48 49  1  0
 49 50  1  0
 50 51  1  0
 51 52  1  0
 53 52  1  1
 53 54  1  0
 55 54  1  1
 55 56  1  0
 56 57  1  0
 57 58  1  0
 58 59  1  0
 59 60  1  0
 60 61  1  0
 61 62  1  0
 62 63  1  0
 63 64  1  0
 64 65  1  0
 65 66  1  0
 66 67  1  0
 67 68  1  0
 68 69  1  0
 69 70  1  0
 70 71  1  0
 71 72  1  0
 72 73  1  0
 73 74  1  0
 74 75  1  0
 75 76  1  0
 76 77  1  0
 77 78  1  0
 78 79  1  0
 79 80  1  0
 53  1  1  0
 55  1  1  0
  1 80  1  6
M  RAD  8  12   2  13   3  16   3  21   2  24   2  25   3  26   2  28   2
M  RAD  8  32   2  34   3  36   2  38   3  46   2  48   3  57   2  62   2
M  RAD  8  64   2  66   3  68   2  70   2  72   2  73   2  75   2  78   2
M  END
>  <fragInfo>  (1) 
1 2 3 4 5 6 7 10 11 12 13 14 15 16 17 18 19 20 21 22 39 40 41 42 43 44 45 46 47 48 49 50 51 52 53 54 55 56 57 58 59 60 61 62 63 64 65 66 67 68 69 70 71 72 73 74 75 76 77 78 79 80
8 9
23
24
25
26
27
28
29 30 31 32
33
34
35
36
37 38


>  <torsionInfo>  (1) 
7 8 0 1
22 23 0 2
23 24 2 3
24 25 3 4
25 26 4 5
26 27 5 6
27 28 6 7
28 29 7 8
32 33 8 9
33 34 9 10
34 35 10 11
35 36 11 12
36 37 12 13


>  <atomInfo>  (1) 
1  0.20716006C 
2  -0.0015306C 
3  -0.0592238C 
4  -0.0474224C 
5  -0.0526732C 
6  -0.0504457C 
7  -0.0416800C 
8  -0.0533122C 
9  -0.0651181C 
10 -0.0501622C 
11 -0.0493245C 
12 -0.0311860C 
13 -0.0133537C 
14 -0.0427093C 
15 -0.0326601C 
16 -0.0314161C 
17 -0.0175210C 
18 -0.0600294C 
19 0.05003909C 
20 -0.3724022OA
21 0.11227250C 
22 0.08658908C 
23 -0.0203362C 
24 -0.0282350C 
25 -0.0098632C 
26 -0.0305781C 
27 -0.0455102C 
28 -0.0263710C 
29 0.01211358C 
30 -0.1001101C 
31 -0.0673096C 
32 0.15897102C 
33 -0.3203964OA
34 0.29554049C 
35 -0.3053929OA
36 0.21276128C 
37 -0.3388055OA
38 0.11868848C 
39 -0.3754007OA
40 0.04706890C 
41 -0.0295861C 
42 -0.0511122C 
43 -0.0531250C 
44 -0.0507334C 
45 -0.0240161C 
46 0.08776331C 
47 -0.3324912OA
48 0.32839100C 
49 -0.1856630OA
50 -0.2043966OA
51 0.18372263C 
52 -0.3198372OA
53 0.20061548C 
54 -0.3166798OA
55 0.20113862C 
56 -0.3122381OA
57 0.24781891C 
58 -0.1977503OA
59 -0.2228583OA
60 0.12813819C 
61 -0.1258149SA
62 0.02173878C 
63 -0.0108701C 
64 0.08879882C 
65 -0.3346269OA
66 0.29451520C 
67 -0.3053318OA
68 0.21509959C 
69 -0.3128838OA
70 0.21218393C 
71 -0.3414865OA
72 0.09069948C 
73 -0.0040861C 
74 -0.0150251C 
75 0.12271083C 
76 -0.2274798OA
77 -0.1950195OA
78 0.27985722C 
79 -0.1944375OA
80 -0.2158161OA


$$$$
