
     RDKit          3D

 25 25  0  0  0  0  0  0  0  0999 V2000
   -3.1921   -2.0879   -0.5082 C   0  0  0  0  0  0  0  0  0  0  0  0
   -3.1185   -0.9736   -1.5142 C   0  0  1  0  0  0  0  0  0  0  0  0
   -4.4971   -0.5206   -1.9449 C   0  0  0  0  0  0  0  0  0  0  0  0
   -4.9734    0.6744   -1.1104 C   0  0  2  0  0  0  0  0  0  0  0  0
   -4.4075    1.8615   -1.6175 O   0  0  0  0  0  0  0  0  0  0  0  0
   -4.5881    0.4725    0.3526 C   0  0  2  0  0  0  0  0  0  0  0  0
   -5.0760    1.5452    1.0714 O   0  0  0  0  0  0  0  0  0  0  0  0
   -3.0890    0.4221    0.5021 C   0  0  1  0  0  0  0  0  0  0  0  0
   -2.8196   -0.6479    1.3682 O   0  0  0  0  0  0  0  0  0  0  0  0
   -2.4081    0.1953   -0.8459 C   0  0  1  0  0  0  0  0  0  0  0  0
   -1.0197   -0.1741   -0.6059 N   0  0  0  0  0  0  0  0  0  0  0  0
   -0.9167   -1.2760    0.2909 C   0  0  0  0  0  3  0  0  0  0  0  0
    0.1850   -1.1642    1.2512 C   0  0  2  0  0  0  0  0  0  0  0  0
    0.2539    0.0129    2.1293 C   0  0  0  0  0  0  0  0  0  0  0  0
    1.3011   -1.8448    0.9507 O   0  0  0  0  0  0  0  0  0  0  0  0
    1.9799   -1.5664   -0.1866 C   0  0  1  0  0  0  0  0  0  0  0  0
    1.2922   -1.7268   -1.3609 O   0  0  0  0  0  0  0  0  0  0  0  0
    2.7648   -0.3000   -0.0691 C   0  0  1  0  0  0  0  0  0  0  0  0
    3.6992   -0.3630    0.9719 O   0  0  0  0  0  0  0  0  0  0  0  0
    3.4754   -0.0315   -1.3924 C   0  0  2  0  0  0  0  0  0  0  0  0
    4.3821   -1.0574   -1.6714 O   0  0  0  0  0  0  0  0  0  0  0  0
    4.2044    1.3000   -1.2641 C   0  0  0  0  0  3  0  0  0  0  0  0
    5.2142    1.2431   -0.1363 C   0  0  0  0  0  0  0  0  0  0  0  0
    5.9174    2.5618   -0.0238 C   0  0  0  0  0  3  0  0  0  0  0  0
    5.4362    3.4455   -0.9944 O   0  0  0  0  0  0  0  0  0  0  0  0
  2  1  1  1
  2  3  1  0
  3  4  1  0
  4  5  1  6
  4  6  1  0
  6  7  1  1
  6  8  1  0
  8  9  1  1
  8 10  1  0
 10 11  1  1
 11 12  1  0
 12 13  1  0
 13 14  1  6
 13 15  1  0
 15 16  1  0
 16 17  1  6
 16 18  1  0
 18 19  1  1
 18 20  1  0
 20 21  1  1
 20 22  1  0
 22 23  1  0
 23 24  1  0
 24 25  1  0
 10  2  1  0
M  RAD  3  12   2  22   2  24   2
M  END
>  <fragInfo>  (1) 
1 2 3 4 5 6 7 8 9 10
11
12
13 14
15
16 17
18 19
20 21
22
23
24 25


>  <torsionInfo>  (1) 
10 11 0 1
11 12 1 2
12 13 2 3
13 15 3 4
15 16 4 5
16 18 5 6
18 20 6 7
20 22 7 8
22 23 8 9
23 24 9 10


>  <atomInfo>  (1) 
1  -0.0608233C 
2  -0.0236268C 
3  -0.0201755C 
4  0.08280077C 
5  -0.3903155OA
6  0.10722524C 
7  -0.3876533OA
8  0.09793080C 
9  -0.3886791OA
10 0.03848614C 
11 -0.3043247NA
12 0.05132158C 
13 0.07487610C 
14 -0.0369435C 
15 -0.3453959OA
16 0.18328316C 
17 -0.3657348OA
18 0.13067744C 
19 -0.3850928OA
20 0.08814676C 
21 -0.3899184OA
22 -0.0044525C 
23 -0.0186674C 
24 0.08025217C 
25 -0.3904234OA


$$$$
