
     RDKit          3D

 24 25  0  0  0  0  0  0  0  0999 V2000
    7.6126    2.7274   -0.4468 C   0  0  0  0  0  0  0  0  0  0  0  0
    6.2453    2.6620   -0.2136 O   0  0  0  0  0  0  0  0  0  0  0  0
    5.6728    1.4820   -0.6716 C   0  0  0  0  0  3  0  0  0  0  0  0
    4.5907    1.1820    0.1186 O   0  0  0  0  0  0  0  0  0  0  0  0
    3.8586    0.0954   -0.3542 C   0  0  2  0  0  0  0  0  0  0  0  0
    2.6664   -0.2822    0.4627 C   0  0  0  0  0  0  0  0  0  0  0  0
    4.4944   -1.2574   -0.0981 C   0  0  0  0  0  3  0  0  0  0  0  0
    3.2851   -1.6238    0.7514 C   0  0  2  0  0  0  0  0  0  0  0  0
    2.4889   -2.7964    0.2397 C   0  0  0  0  0  3  0  0  0  0  0  0
    1.1516   -2.8121    0.8513 C   0  0  0  0  0  0  0  0  0  0  0  0
    0.1137   -2.1486    0.3110 C   0  0  0  0  0  0  0  0  0  0  0  0
    0.3758   -1.2321   -1.1810 S   0  0  0  0  0  0  0  0  0  0  0  0
   -1.1839   -2.2557    1.0046 C   0  0  0  0  0  0  0  0  0  0  0  0
   -2.2053   -2.7995    0.0112 C   0  0  0  0  0  0  0  0  0  0  0  0
   -2.3215   -1.8221   -1.0010 O   0  0  0  0  0  0  0  0  0  0  0  0
   -2.8846   -0.6945   -0.4427 C   0  0  0  0  0  0  0  0  0  0  0  0
   -2.1134   -0.2086    0.5900 O   0  0  0  0  0  0  0  0  0  0  0  0
   -2.7171    0.9243    1.1212 C   0  0  2  0  0  0  0  0  0  0  0  0
   -4.0249    0.6810    1.6390 O   0  0  0  0  0  0  0  0  0  0  0  0
   -3.7931    1.5520    0.4688 C   0  0  2  0  0  0  0  0  0  0  0  0
   -4.4939    1.0335   -0.7793 C   0  0  0  0  0  3  0  0  0  0  0  0
   -5.5823    2.0328   -1.1159 C   0  0  2  0  0  0  0  0  0  0  0  0
   -4.8819    3.3646   -1.3590 C   0  0  0  0  0  0  0  0  0  0  0  0
   -6.3540    2.1961    0.0371 O   0  0  0  0  0  0  0  0  0  0  0  0
  1  2  1  0
  2  3  1  0
  3  4  1  0
  5  4  1  1
  5  6  1  0
  5  7  1  0
  7  8  1  0
  8  9  1  6
  9 10  1  0
 10 11  2  3
 11 12  1  0
 11 13  1  0
 13 14  1  0
 14 15  1  0
 15 16  1  0
 16 17  1  0
 18 17  1  6
 18 19  1  0
 18 20  1  0
 20 21  1  6
 21 22  1  0
 22 23  1  1
 22 24  1  0
  8  6  1  0
 20 19  1  0
M  RAD  4   3   2   7   2   9   2  21   2
M  END
>  <fragInfo>  (1) 
5 6 7 8
1 2
3
4
9
10 11 12
13
14
15
16
17
18 19 20
21
22 23 24


>  <torsionInfo>  (1) 
4 5 3 0
8 9 0 4
2 3 1 2
3 4 2 3
9 10 4 5
11 13 5 6
13 14 6 7
14 15 7 8
15 16 8 9
16 17 9 10
17 18 10 11
20 21 11 12
21 22 12 13


>  <atomInfo>  (1) 
1  0.03885651C 
2  -0.3513312OA
3  0.20895059C 
4  -0.3443042OA
5  0.06464017C 
6  -0.0225018C 
7  -0.0057399C 
8  -0.0263335C 
9  -0.0123482C 
10 -0.0711507C 
11 -0.0198003C 
12 -0.1481218SA
13 0.00130631C 
14 0.05396087C 
15 -0.3549341OA
16 0.14953159C 
17 -0.3238323OA
18 0.18703280C 
19 -0.3408818OA
20 0.11745597C 
21 0.02392977C 
22 0.05712237C 
23 -0.0385610C 
24 -0.3930093OA


$$$$
