
     RDKit          3D

 13 12  0  0  0  0  0  0  0  0999 V2000
    4.1349    0.4149    1.5744 C   0  0  0  0  0  0  0  0  0  0  0  0
    3.0676    1.0288    0.8672 O   0  0  0  0  0  0  0  0  0  0  0  0
    3.3033    0.7324   -0.5876 C   0  0  0  0  0  3  0  0  0  0  0  0
    2.2651   -0.2758   -0.7029 O   0  0  0  0  0  0  0  0  0  0  0  0
    1.2949    0.3317   -1.6248 C   0  0  2  0  0  0  0  0  0  0  0  0
    0.4384    1.2289   -0.6647 C   0  0  0  0  0  0  0  0  0  0  0  0
    0.2532   -0.9740   -1.7122 C   0  0  0  0  0  0  0  0  0  0  0  0
   -0.8416   -0.8449   -1.0721 C   0  0  0  0  0  0  0  0  0  0  0  0
   -1.2172    0.2960   -0.3384 N   0  0  0  0  0  0  0  0  0  0  0  0
   -2.5282    0.9581   -0.3484 C   0  0  0  0  0  3  0  0  0  0  0  0
   -3.6050    0.1725    0.2741 C   0  0  0  0  0  0  0  0  0  0  0  0
   -3.8102    0.4836    1.6994 C   0  0  0  0  0  3  0  0  0  0  0  0
   -2.7553    0.1089    2.6362 C   0  0  0  0  0  0  0  0  0  0  0  0
  1  2  1  0
  2  3  1  0
  3  4  1  0
  4  5  1  0
  5  6  1  1
  5  7  1  0
  7  8  2  3
  8  9  1  0
  9 10  1  0
 10 11  1  0
 11 12  1  0
 12 13  1  0
M  RAD  3   3   2  10   2  12   2
M  END
>  <fragInfo>  (1) 
1 2
3
4
5 6
7 8
9
10
11
12 13


>  <torsionInfo>  (1) 
2 3 0 1
3 4 1 2
4 5 2 3
5 7 3 4
8 9 4 5
9 10 5 6
10 11 6 7
11 12 7 8


>  <atomInfo>  (1) 
1  0.03885669C 
2  -0.3513230OA
3  0.20924338C 
4  -0.3406545OA
5  0.07780281C 
6  -0.0348174C 
7  -0.0403194C 
8  -0.0048067C 
9  -0.3862623N 
10 0.04592185C 
11 -0.0280568C 
12 -0.0395957C 
13 -0.0621758C 


$$$$
