
     RDKit          3D

 24 23  0  0  0  0  0  0  0  0999 V2000
    6.4481   -1.5045   -1.5347 C   0  0  0  0  0  0  0  0  0  0  0  0
    6.7051   -0.8550   -0.4040 C   0  0  0  0  0  0  0  0  0  0  0  0
    6.9662   -1.7018    0.8158 C   0  0  0  0  0  0  0  0  0  0  0  0
    6.7680    0.6003   -0.2565 C   0  0  0  0  0  3  0  0  0  0  0  0
    5.5516    1.3159    0.1408 C   0  0  0  0  0  0  0  0  0  0  0  0
    4.4001    1.1797   -0.7995 C   0  0  0  0  0  0  0  0  0  0  0  0
    3.9530   -0.2252   -0.9056 C   0  0  0  0  0  3  0  0  0  0  0  0
    2.8689   -0.5145   -1.8854 C   0  0  0  0  0  0  0  0  0  0  0  0
    3.7248   -0.9555    0.3615 C   0  0  0  0  0  0  0  0  0  0  0  0
    2.8005   -0.3871    1.3551 C   0  0  0  0  0  0  0  0  0  0  0  0
    1.4060   -0.1860    0.9029 C   0  0  0  0  0  0  0  0  0  0  0  0
    1.2245    0.6855   -0.1548 O   0  0  0  0  0  0  0  0  0  0  0  0
   -0.1250    0.7553   -0.4448 C   0  0  0  0  0  0  0  0  0  0  0  0
   -0.9577    1.2438    0.7009 C   0  0  0  0  0  0  0  0  0  0  0  0
   -2.3777    1.2784    0.2804 C   0  0  0  0  0  0  0  0  0  0  0  0
   -2.7373    0.9166   -0.9285 C   0  0  0  0  0  0  0  0  0  0  0  0
   -4.1639    0.9556   -1.3383 C   0  0  0  0  0  0  0  0  0  0  0  0
   -5.0789    1.4347   -0.2501 C   0  0  0  0  0  0  0  0  0  0  0  0
   -5.0212    0.5600    0.9654 C   0  0  0  0  0  3  0  0  0  0  0  0
   -5.4400   -0.8421    0.5460 C   0  0  2  0  0  0  0  0  0  0  0  0
   -4.5064   -1.3853   -0.5224 C   0  0  0  0  0  0  0  0  0  0  0  0
   -6.8228   -0.7818   -0.0885 C   0  0  0  0  0  0  0  0  0  0  0  0
   -7.7794   -0.2299    0.9463 C   0  0  0  0  0  0  0  0  0  0  0  0
   -7.8064   -1.3855    2.4977 Br  0  0  0  0  0  0  0  0  0  0  0  0
  1  2  2  0
  2  3  1  0
  2  4  1  0
  4  5  1  0
  5  6  1  0
  6  7  1  0
  7  8  1  0
  7  9  1  0
  9 10  1  0
 10 11  1  0
 11 12  1  0
 12 13  1  0
 13 14  1  0
 14 15  1  0
 15 16  2  3
 16 17  1  0
 17 18  1  0
 18 19  1  0
 19 20  1  0
 20 21  1  6
 20 22  1  0
 22 23  1  0
 23 24  1  0
M  RAD  3   4   2   7   2  19   2
M  END
>  <fragInfo>  (1) 
1 2 3
4
5
6
7 8
9
10
11
12
13
14
15 16
17
18
19
20 21
22
23 24


>  <torsionInfo>  (1) 
2 4 0 1
4 5 1 2
5 6 2 3
6 7 3 4
7 9 4 5
9 10 5 6
10 11 6 7
11 12 7 8
12 13 8 9
13 14 9 10
14 15 10 11
16 17 11 12
17 18 12 13
18 19 13 14
19 20 14 15
20 22 15 16
22 23 16 17


>  <atomInfo>  (1) 
1  -0.0998388C 
2  -0.0768143C 
3  -0.0439038C 
4  -0.0143031C 
5  -0.0456011C 
6  -0.0467471C 
7  -0.0270853C 
8  -0.0591204C 
9  -0.0451487C 
10 -0.0290649C 
11 0.04658945C 
12 -0.3811304OA
13 0.05000200C 
14 -0.0114225C 
15 -0.0862507C 
16 -0.0884427C 
17 -0.0347878C 
18 -0.0464378C 
19 -0.0354155C 
20 -0.0403550C 
21 -0.0622048C 
22 -0.0406505C 
23 0.00338918C 
24 -0.0927968Br


$$$$
