
     RDKit          3D

 75 76  0  0  0  0  0  0  0  0999 V2000
   -7.4866   -4.4465    0.2723 C   0  0  0  0  0  0  0  0  0  0  0  0
   -8.8876   -3.9455    0.5503 C   0  0  0  0  0  0  0  0  0  0  0  0
   -9.8482   -4.9686   -0.0361 C   0  0  0  0  0  0  0  0  0  0  0  0
   -9.0671   -2.6775   -0.2727 C   0  0  0  0  0  0  0  0  0  0  0  0
  -10.4374   -2.0700   -0.0849 C   0  0  0  0  0  0  0  0  0  0  0  0
  -10.6299   -1.7252    1.3618 C   0  0  0  0  0  0  0  0  0  0  0  0
   -9.6234   -0.7406    1.8735 C   0  0  1  0  0  0  0  0  0  0  0  0
   -8.2081   -1.1706    1.7876 C   0  0  2  0  0  0  0  0  0  0  0  0
   -7.5016   -1.1135    3.1249 C   0  0  0  0  0  0  0  0  0  0  0  0
   -9.9112    0.6809    1.5484 C   0  0  0  0  0  3  0  0  0  0  0  0
  -11.1068    1.1656    2.3553 C   0  0  0  0  0  3  0  0  0  0  0  0
  -10.5972    2.0047    3.8651 S   0  0  0  0  0  0  0  0  0  0  0  0
  -11.9367    2.0901    1.5017 C   0  0  0  0  0  0  0  0  0  0  0  0
  -11.4942    3.5363    1.6719 C   0  0  0  0  0  0  0  0  0  0  0  0
  -12.1120    4.4189    0.6215 C   0  0  0  0  0  3  0  0  0  0  0  0
  -11.2974    4.4649   -0.6533 C   0  0  0  0  0  0  0  0  0  0  0  0
   -9.8788    4.9178   -0.3391 C   0  0  0  0  0  0  0  0  0  0  0  0
   -9.1525    3.7723    0.3543 C   0  0  0  0  0  0  0  0  0  0  0  0
   -8.5158    2.8547   -0.6560 C   0  0  2  0  0  0  0  0  0  0  0  0
   -9.5917    2.2143   -1.4882 C   0  0  0  0  0  2  0  0  0  0  0  0
   -7.7141    1.8335    0.0714 C   0  0  0  0  0  0  0  0  0  0  0  0
   -8.0931    0.5603    0.0344 C   0  0  0  0  0  0  0  0  0  0  0  0
   -7.3926   -0.5376    0.7056 C   0  0  1  0  0  0  0  0  0  0  0  0
   -6.0107   -0.2128    1.1774 C   0  0  0  0  0  3  0  0  0  0  0  0
   -5.1631    0.4175    0.1225 C   0  0  2  0  0  0  0  0  0  0  0  0
   -5.0439   -0.5405   -1.0392 C   0  0  0  0  0  3  0  0  0  0  0  0
   -5.9206    0.1975   -2.4465 S   0  0  0  0  0  0  0  0  0  0  0  0
   -6.4637   -1.0330   -3.6330 C   0  0  2  0  0  0  0  0  0  0  0  0
   -7.7729   -1.6800   -3.2636 C   0  0  0  0  0  2  0  0  0  0  0  0
   -5.2418   -2.3427   -3.8971 S   0  0  0  0  0  0  0  0  0  0  0  0
   -4.1664   -2.4203   -2.4539 C   0  0  0  0  0  3  0  0  0  0  0  0
   -4.6611   -3.4117   -1.4221 C   0  0  0  0  0  3  0  0  0  0  0  0
   -3.5689   -3.7033   -0.4122 C   0  0  0  0  0  3  0  0  0  0  0  0
   -2.0236   -2.8365   -0.8843 S   0  0  0  0  0  0  0  0  0  0  0  0
   -1.1425   -2.1049    0.9091 S   0  0  0  0  0  0  0  0  0  0  0  0
   -2.0770   -0.6495    1.4578 C   0  0  2  0  0  0  0  0  0  0  0  0
   -3.0959   -1.1447    2.4897 C   0  0  0  0  0  3  0  0  0  0  0  0
   -2.2738   -1.9253    3.8878 S   0  0  0  0  0  0  0  0  0  0  0  0
   -2.7575   -0.0588    0.2604 C   0  0  0  0  0  3  0  0  0  0  0  0
   -3.8462    0.9202    0.6360 C   0  0  1  0  0  0  0  0  0  0  0  0
   -3.5474    2.2162   -0.1330 C   0  0  0  0  0  3  0  0  0  0  0  0
   -4.6175    3.2303    0.0687 C   0  0  0  0  0  3  0  0  0  0  0  0
   -4.0032    4.7366    0.8049 S   0  0  0  0  0  0  0  0  0  0  0  0
   -2.2479    4.6978    1.1291 C   0  0  0  0  0  3  0  0  0  0  0  0
   -1.4400    3.1581    0.6475 S   0  0  0  0  0  0  0  0  0  0  0  0
    0.3343    3.3346    1.0624 C   0  0  0  0  0  3  0  0  0  0  0  0
    1.0351    2.0683    0.6711 C   0  0  0  0  0  3  0  0  0  0  0  0
    1.0755    0.9145    2.0481 S   0  0  0  0  0  0  0  0  0  0  0  0
    1.9271   -0.6093    1.6528 C   0  0  0  0  0  3  0  0  0  0  0  0
    2.5744   -0.6619   -0.0220 S   0  0  0  0  0  0  0  0  0  0  0  0
    2.2251    0.8353   -0.9558 C   0  0  0  0  0  3  0  0  0  0  0  0
    2.9138    0.7270   -2.6273 S   0  0  0  0  0  0  0  0  0  0  0  0
    3.7548   -0.8649   -2.8455 C   0  0  0  0  0  0  0  0  0  0  0  0
    4.9760   -0.9216   -1.9297 C   0  0  0  0  0  3  0  0  0  0  0  0
    6.4374   -0.2627   -2.7866 S   0  0  0  0  0  0  0  0  0  0  0  0
    7.8261   -0.3727   -1.6197 C   0  0  0  0  0  3  0  0  0  0  0  0
    9.3324    0.2700   -2.3707 S   0  0  0  0  0  0  0  0  0  0  0  0
    9.0426    0.8332   -4.0494 C   0  0  0  0  0  3  0  0  0  0  0  0
   10.4891    1.4879   -4.8628 S   0  0  0  0  0  0  0  0  0  0  0  0
   11.9741    1.4929   -3.8903 C   0  0  0  0  0  3  0  0  0  0  0  0
   11.6980    0.8326   -2.2419 S   0  0  0  0  0  0  0  0  0  0  0  0
   13.2501    0.8660   -1.3125 C   0  0  0  0  0  3  0  0  0  0  0  0
   13.0593    0.3250    0.0727 C   0  0  0  0  0  3  0  0  0  0  0  0
   12.7902   -1.4474    0.0727 S   0  0  0  0  0  0  0  0  0  0  0  0
   12.5502   -2.2191    1.6359 C   0  0  0  0  0  3  0  0  0  0  0  0
   12.9866   -1.3311    3.0720 S   0  0  0  0  0  0  0  0  0  0  0  0
   14.2668   -0.1065    2.9905 C   0  0  0  0  0  3  0  0  0  0  0  0
   15.1075   -0.1392    1.7614 C   0  0  0  0  0  0  0  0  0  0  0  0
   16.2951   -1.0607    2.0030 C   0  0  0  0  0  3  0  0  0  0  0  0
   17.1370   -0.5831    3.1565 C   0  0  0  0  0  3  0  0  0  0  0  0
   18.8897   -0.6442    2.7284 S   0  0  0  0  0  0  0  0  0  0  0  0
   19.2037   -1.2406    1.0730 C   0  0  0  0  0  3  0  0  0  0  0  0
   17.7184   -1.6665    0.1451 S   0  0  0  0  0  0  0  0  0  0  0  0
   18.2260   -2.3518   -1.7886 S   0  0  0  0  0  0  0  0  0  0  0  0
   18.4730   -4.1329   -1.8200 C   0  0  0  0  0  2  0  0  0  0  0  0
  1  2  1  0
  2  3  1  0
  2  4  1  0
  4  5  1  0
  5  6  1  0
  7  6  1  6
  7  8  1  0
  8  9  1  1
  7 10  1  0
 10 11  1  0
 11 12  1  0
 11 13  1  0
 13 14  1  0
 14 15  1  0
 15 16  1  0
 16 17  1  0
 17 18  1  0
 18 19  1  0
 19 20  1  1
 19 21  1  0
 21 22  2  3
 22 23  1  0
 23 24  1  1
 25 24  1  1
 25 26  1  0
 26 27  1  0
 27 28  1  0
 28 29  1  1
 28 30  1  0
 30 31  1  0
 31 32  1  0
 32 33  1  0
 33 34  1  0
 34 35  1  0
 35 36  1  0
 36 37  1  1
 37 38  1  0
 36 39  1  0
 39 40  1  0
 40 41  1  6
 41 42  1  0
 42 43  1  0
 43 44  1  0
 44 45  1  0
 45 46  1  0
 46 47  1  0
 47 48  1  0
 48 49  1  0
 49 50  1  0
 50 51  1  0
 51 52  1  0
 52 53  1  0
 53 54  1  0
 54 55  1  0
 55 56  1  0
 56 57  1  0
 57 58  1  0
 58 59  1  0
 59 60  1  0
 60 61  1  0
 61 62  1  0
 62 63  1  0
 63 64  1  0
 64 65  1  0
 65 66  1  0
 66 67  1  0
 67 68  1  0
 68 69  1  0
 69 70  1  0
 70 71  1  0
 71 72  1  0
 72 73  1  0
 73 74  1  0
 74 75  1  0
 23  8  1  0
 40 25  1  0
M  RAD  8  10   2  11   2  15   2  20   3  24   2  26   2  29   3  31   2
M  RAD  8  32   2  33   2  37   2  39   2  41   2  42   2  44   2  46   2
M  RAD  8  47   2  49   2  51   2  54   2  56   2  58   2  60   2  62   2
M  RAD  7  63   2  65   2  67   2  69   2  70   2  72   2  75   3
M  END
>  <fragInfo>  (1) 
7 8 9 10 11 12 13 14 15 16 17 18 19 20 21 22 23
1 2 3
4
5
6
24
25 26 27 28 29 30 31 32 33 34 35 36 39 40
37 38
41
42
43
44
45
46
47
48
49
50
51
52
53
54
55
56
57
58
59
60
61
62
63
64
65
66
67
68
69
70
71
72
73
74 75


>  <torsionInfo>  (1) 
6 7 4 0
23 24 0 5
2 4 1 2
4 5 2 3
5 6 3 4
24 25 5 6
36 37 6 7
40 41 6 8
41 42 8 9
42 43 9 10
43 44 10 11
44 45 11 12
45 46 12 13
46 47 13 14
47 48 14 15
48 49 15 16
49 50 16 17
50 51 17 18
51 52 18 19
52 53 19 20
53 54 20 21
54 55 21 22
55 56 22 23
56 57 23 24
57 58 24 25
58 59 25 26
59 60 26 27
60 61 27 28
61 62 28 29
62 63 29 30
63 64 30 31
64 65 31 32
65 66 32 33
66 67 33 34
67 68 34 35
68 69 35 36
69 70 36 37
70 71 37 38
71 72 38 39
72 73 39 40
73 74 40 41


>  <atomInfo>  (1) 
1  -0.0627736C 
2  -0.0471323C 
3  -0.0627736C 
4  -0.0509639C 
5  -0.0527769C 
6  -0.0498341C 
7  -0.0337371C 
8  -0.0345068C 
9  -0.0616590C 
10 -0.0179265C 
11 0.03107553C 
12 -0.1707254SA
13 -0.0367606C 
14 -0.0488064C 
15 -0.0385323C 
16 -0.0501608C 
17 -0.0524608C 
18 -0.0466646C 
19 -0.0199100C 
20 -0.0277163C 
21 -0.0848223C 
22 -0.0845556C 
23 -0.0170421C 
24 -0.0268940C 
25 -0.0211563C 
26 0.02146361C 
27 -0.1424080SA
28 0.05436633C 
29 -0.0101090C 
30 -0.1423740SA
31 0.02238830C 
32 -0.0093686C 
33 0.03242622C 
34 -0.0888366SA
35 -0.0888789SA
36 0.03127854C 
37 0.02746110C 
38 -0.1735300SA
39 -0.0197916C 
40 -0.0286453C 
41 -0.0206399C 
42 0.02154636C 
43 -0.1406484SA
44 0.07189656C 
45 -0.1397237SA
46 0.03199102C 
47 0.03199156C 
48 -0.1396898SA
49 0.07278499C 
50 -0.1291120SA
51 0.07245368C 
52 -0.1443195SA
53 0.00753989C 
54 0.02773043C 
55 -0.1400425SA
56 0.07277393C 
57 -0.1290667SA
58 0.07364191C 
59 -0.1290665SA
60 0.07278571C 
61 -0.1396898SA
62 0.03199156C 
63 0.03199102C 
64 -0.1397239SA
65 0.07188556C 
66 -0.1409621SA
67 0.01815705C 
68 -0.0359072C 
69 -0.0232644C 
70 0.02131202C 
71 -0.1397178SA
72 0.08272365C 
73 -0.0772364SA
74 -0.0870366SA
75 0.04287935C 


$$$$
