
     RDKit          3D

 21 21  0  0  0  0  0  0  0  0999 V2000
    5.7730    0.7930    0.0166 C   0  0  0  0  0  0  0  0  0  0  0  0
    4.4795    0.6420    0.7844 C   0  0  0  0  0  0  0  0  0  0  0  0
    4.8063    0.8366    2.2587 C   0  0  0  0  0  0  0  0  0  0  0  0
    4.0007   -0.7987    0.5742 C   0  0  0  0  0  0  0  0  0  0  0  0
    2.6998   -1.0336    1.3167 C   0  0  0  0  0  0  0  0  0  0  0  0
    1.6451   -0.0811    0.7981 C   0  0  0  0  0  0  0  0  0  0  0  0
    1.4281   -0.3122   -0.6695 C   0  0  1  0  0  0  0  0  0  0  0  0
    0.3797    0.6269   -1.2096 C   0  0  0  0  0  0  0  0  0  0  0  0
    2.7179   -0.0469   -1.4141 C   0  0  0  0  0  3  0  0  0  0  0  0
    2.3486    0.2082   -2.8718 C   0  0  0  0  0  0  0  0  0  0  0  0
    1.1037   -0.5967   -3.2363 C   0  0  0  0  0  0  0  0  0  0  0  0
   -0.0788    0.0668   -2.5469 C   0  0  1  0  0  0  0  0  0  0  0  0
   -1.0579   -1.0604   -2.2157 C   0  0  0  0  0  0  0  0  0  0  0  0
   -2.2363   -0.5306   -1.4256 C   0  0  0  0  0  3  0  0  0  0  0  0
   -1.6777    0.0683   -0.1506 C   0  0  0  0  0  0  0  0  0  0  0  0
   -2.8378    0.6006    0.6479 C   0  0  1  0  0  0  0  0  0  0  0  0
   -3.5361    1.6454   -0.1776 C   0  0  0  0  0  0  0  0  0  0  0  0
   -3.7494   -0.5422    0.9905 C   0  0  0  0  0  0  0  0  0  0  0  0
   -4.9254   -0.1188    1.7787 C   0  0  0  0  0  0  0  0  0  0  0  0
   -5.0983   -0.6455    2.9807 C   0  0  0  0  0  0  0  0  0  0  0  0
   -6.1847   -0.2880    3.7711 O   0  0  0  0  0  0  0  0  0  0  0  0
  1  2  1  0
  2  3  1  0
  2  4  1  0
  4  5  1  0
  5  6  1  0
  7  6  1  1
  7  8  1  0
  7  9  1  0
  9 10  1  0
 10 11  1  0
 11 12  1  0
 12 13  1  1
 13 14  1  0
 14 15  1  0
 15 16  1  0
 16 17  1  6
 16 18  1  0
 18 19  1  0
 19 20  2  3
 20 21  1  0
 12  8  1  0
M  RAD  2   9   2  14   2
M  END
>  <fragInfo>  (1) 
7 8 9 10 11 12
1 2 3
4
5
6
13
14
15
16 17
18
19 20 21


>  <torsionInfo>  (1) 
6 7 4 0
12 13 0 5
2 4 1 2
4 5 2 3
5 6 3 4
13 14 5 6
14 15 6 7
15 16 7 8
16 18 8 9
18 19 9 10


>  <atomInfo>  (1) 
1  -0.0627736C 
2  -0.0471324C 
3  -0.0627736C 
4  -0.0509641C 
5  -0.0527880C 
6  -0.0501526C 
7  -0.0380461C 
8  -0.0473048C 
9  -0.0354567C 
10 -0.0496436C 
11 -0.0501426C 
12 -0.0408705C 
13 -0.0473047C 
14 -0.0380363C 
15 -0.0472810C 
16 -0.0404154C 
17 -0.0622009C 
18 -0.0291666C 
19 -0.0498383C 
20 0.07513690C 
21 -0.5159307OA


$$$$
