
     RDKit          3D

 16 15  0  0  0  0  0  0  0  0999 V2000
    2.3777   -3.1960    0.9835 O   0  0  0  0  0  0  0  0  0  0  0  0
    3.0160   -2.2288    1.4120 N   0  0  0  0  0  4  0  0  0  0  0  0
    3.7660   -2.3405    2.5342 O   0  0  0  0  0  1  0  0  0  0  0  0
    2.9571   -1.0019    0.7200 C   0  0  0  0  0  0  0  0  0  0  0  0
    1.7896   -0.4523    0.4746 C   0  0  0  0  0  0  0  0  0  0  0  0
    1.6235    0.8082   -0.2303 C   0  0  0  0  0  0  0  0  0  0  0  0
    0.4274    1.2920   -0.4368 C   0  0  0  0  0  0  0  0  0  0  0  0
   -0.7616    0.5698    0.0398 C   0  0  0  0  0  0  0  0  0  0  0  0
   -1.5644    1.3075    0.9692 N   0  0  0  0  0  2  0  0  0  0  0  0
   -2.9341    1.0015    0.7062 C   0  0  0  0  0  0  0  0  0  0  0  0
   -3.3340   -0.1580    0.3526 N   0  0  0  0  0  0  0  0  0  0  0  0
   -2.4699   -1.2828    0.1775 C   0  0  0  0  0  0  0  0  0  0  0  0
   -3.0205   -2.4648    0.6746 O   0  0  0  0  0  1  0  0  0  0  0  0
    0.2770    2.5702   -1.1526 C   0  0  0  0  0  0  0  0  0  0  0  0
   -0.5153    2.4329   -2.3874 C   0  0  0  0  0  0  0  0  0  0  0  0
   -1.6346    3.1430   -2.4891 C   0  0  0  0  0  0  0  0  0  0  0  0
  1  2  2  0
  2  3  1  0
  2  4  1  0
  4  5  2  3
  5  6  1  0
  6  7  2  3
  7  8  1  0
  8  9  1  0
  9 10  1  0
 10 11  2  3
 11 12  1  0
 12 13  1  0
  7 14  1  0
 14 15  1  0
 15 16  2  0
M  CHG  4   2   1   3  -1   9   1  13  -1
M  RAD  1   9   3
M  END
>  <fragInfo>  (1) 
1 2 3
4 5
6 7
8
9
10 11
12 13
14
15 16


>  <torsionInfo>  (1) 
2 4 0 1
5 6 1 2
7 8 2 3
7 14 2 7
8 9 3 4
9 10 4 5
11 12 5 6
14 15 7 8


>  <atomInfo>  (1) 
1  -0.2588668OA
2  0.05420827N 
3  -0.2588668OA
4  0.23394048C 
5  0.00824772C 
6  -0.0505552C 
7  -0.0005118C 
8  0.21391290C 
9  0.11932941N 
10 0.29658879C 
11 -0.2500159NA
12 -0.0345602C 
13 -0.8371508OA
14 -0.0078449C 
15 -0.0874413C 
16 -0.1027564C 


$$$$
