
     RDKit          3D

 28 29  0  0  0  0  0  0  0  0999 V2000
   -0.2451    1.4892   -2.1878 C   0  0  0  0  0  0  0  0  0  0  0  0
   -0.0668    1.7641   -0.7410 C   0  0  2  0  0  0  0  0  0  0  0  0
    0.6936    0.7466    0.0197 C   0  0  0  0  0  0  0  0  0  0  0  0
   -1.2913    2.2701   -0.0414 C   0  0  0  0  0  0  0  0  0  0  0  0
   -2.1417    3.0947   -0.9628 C   0  0  0  0  0  0  0  0  0  0  0  0
   -3.6093    2.9196   -0.7498 C   0  0  0  0  0  3  0  0  0  0  0  0
   -3.9659    2.2011    0.5128 C   0  0  1  0  0  0  0  0  0  0  0  0
   -5.2203    2.8312    1.0951 C   0  0  0  0  0  0  0  0  0  0  0  0
   -4.3101    0.7509    0.2155 C   0  0  0  0  0  3  0  0  0  0  0  0
   -4.2845   -0.0351    1.5104 C   0  0  0  0  0  0  0  0  0  0  0  0
   -3.2300   -1.1150    1.3503 C   0  0  0  0  0  0  0  0  0  0  0  0
   -2.1781   -0.5868    0.4267 C   0  0  2  0  0  0  0  0  0  0  0  0
   -2.5361   -0.7381   -1.0254 C   0  0  0  0  0  0  0  0  0  0  0  0
   -2.7502   -2.1808   -1.4287 C   0  0  0  0  0  0  0  0  0  0  0  0
   -3.8748   -2.7663   -0.6114 C   0  0  0  0  0  0  0  0  0  0  0  0
   -0.8212   -1.1021    0.7747 C   0  0  1  0  0  0  0  0  0  0  0  0
   -0.7774   -2.5519    1.1132 C   0  0  0  0  0  0  0  0  0  0  0  0
    0.2734   -0.6435   -0.1070 C   0  0  1  0  0  0  0  0  0  0  0  0
    0.6753   -1.4193   -1.0951 O   0  0  0  0  0  0  0  0  0  0  0  0
    2.0011   -1.6990   -1.1551 C   0  0  0  0  0  0  0  0  0  0  0  0
    2.5270   -2.3443   -0.1147 O   0  0  0  0  0  0  0  0  0  0  0  0
    2.5536   -1.8732    1.1374 C   0  0  0  0  0  0  0  0  0  0  0  0
    3.5178   -0.4773    1.3595 S   0  0  1  0  0  0  0  0  0  0  0  0
    5.5297   -1.5867    0.6260 C   0  0  0  0  0  0  0  0  0  0  0  0
    4.9103   -0.0528    0.8370 C   0  0  1  0  0  0  0  0  0  0  0  0
    5.2116    0.6532   -0.3273 O   0  0  0  0  0  0  0  0  0  0  0  0
    6.5083    0.8041   -0.3956 O   0  0  0  0  0  0  0  0  0  0  0  0
    6.9009    1.6472    0.5308 O   0  0  0  0  0  0  0  0  0  0  0  0
  2  1  1  6
  2  3  1  0
  2  4  1  0
  4  5  1  0
  5  6  1  0
  6  7  1  0
  7  8  1  6
  7  9  1  0
  9 10  1  0
 10 11  1  0
 11 12  1  0
 12 13  1  6
 13 14  1  0
 14 15  1  0
 12 16  1  0
 16 17  1  6
 16 18  1  0
 18 19  1  6
 19 20  1  0
 20 21  1  0
 21 22  1  0
 23 22  1  6
 23 24  1  0
 24 25  1  0
 25 26  1  6
 26 27  1  0
 27 28  1  0
 18  3  1  0
 25 23  1  0
M  RAD  2   6   2   9   2
M  END
>  <fragInfo>  (1) 
1 2 3 4 5 6 7 8 9 10 11 12 16 17 18
13
14 15
19
20
21
22
23 24 25
26
27 28


>  <torsionInfo>  (1) 
12 13 0 1
18 19 0 3
13 14 1 2
19 20 3 4
20 21 4 5
21 22 5 6
22 23 6 7
25 26 7 8
26 27 8 9


>  <atomInfo>  (1) 
1  -0.0624138C 
2  -0.0417923C 
3  -0.0237613C 
4  -0.0503312C 
5  -0.0496523C 
6  -0.0354557C 
7  -0.0380417C 
8  -0.0619585C 
9  -0.0354553C 
10 -0.0496322C 
11 -0.0498131C 
12 -0.0363755C 
13 -0.0503597C 
14 -0.0558961C 
15 -0.0653720C 
16 -0.0148706C 
17 -0.0597609C 
18 0.06341086C 
19 -0.3518608OA
20 0.14765300C 
21 -0.3464535OA
22 0.07982821C 
23 -0.1971608S 
24 0.01678860C 
25 0.13361284C 
26 -0.1928971OA
27 -0.0697924OA
28 -0.2211042OA


$$$$
