
     RDKit          3D

 38 37  0  0  0  0  0  0  0  0999 V2000
   -9.9714   -0.2222   -0.0593 O   0  0  0  0  0  0  0  0  0  0  0  0
   -8.9479   -0.9617   -0.6215 C   0  0  0  0  0  0  0  0  0  0  0  0
   -8.3977   -0.2317   -1.8081 C   0  0  0  0  0  3  0  0  0  0  0  0
   -7.3195    0.6294   -1.3481 N   0  0  0  0  0  0  0  0  0  0  0  0
   -6.1945   -0.1465   -0.8637 C   0  0  1  0  0  0  0  0  0  0  0  0
   -5.6688   -0.9530   -2.0335 C   0  0  0  0  0  0  0  0  0  0  0  0
   -4.5733   -1.7240   -1.6098 O   0  0  0  0  0  0  0  0  0  0  0  0
   -5.1259    0.8330   -0.4096 C   0  0  1  0  0  0  0  0  0  0  0  0
   -5.5941    1.6489    0.5985 O   0  0  0  0  0  0  0  0  0  0  0  0
   -3.9168    0.0420    0.0183 C   0  0  2  0  0  0  0  0  0  0  0  0
   -4.2131   -0.7772    1.1114 O   0  0  0  0  0  0  0  0  0  0  0  0
   -2.8112    1.0263    0.3802 C   0  0  0  0  0  3  0  0  0  0  0  0
   -2.5130    1.8419   -0.8320 C   0  0  1  0  0  0  0  0  0  0  0  0
   -1.8347    3.0670   -0.6275 N   0  0  0  0  0  0  0  0  0  0  0  0
   -2.0095    1.0259   -1.9817 C   0  0  0  0  0  0  0  0  0  0  0  0
   -0.6738    0.6809   -1.8718 O   0  0  0  0  0  0  0  0  0  0  0  0
   -0.4484   -0.0773   -0.7417 C   0  0  1  0  0  0  0  0  0  0  0  0
   -1.1243   -1.3528   -0.9474 N   0  0  0  0  0  0  0  0  0  0  0  0
    0.9292   -0.3572   -0.7326 O   0  0  0  0  0  0  0  0  0  0  0  0
    1.2962   -1.0992    0.3237 N   0  0  0  0  0  0  0  0  0  0  0  0
    1.8754   -0.2037    1.2547 N   0  0  0  0  0  0  0  0  0  0  0  0
    1.4598   -0.4714    2.6041 C   0  0  0  0  0  3  0  0  0  0  0  0
    2.5219   -0.7998    3.4284 O   0  0  0  0  0  0  0  0  0  0  0  0
    2.9423    0.2621    4.2275 C   0  0  0  0  0  3  0  0  0  0  0  0
    4.3265    0.2859    4.3805 O   0  0  0  0  0  0  0  0  0  0  0  0
    4.7975   -0.9954    4.6196 C   0  0  0  0  0  0  0  0  0  0  0  0
    4.4828   -1.8436    3.5630 O   0  0  0  0  0  1  0  0  0  0  0  0
    2.3327   -1.9462   -0.0847 N   0  0  0  0  0  0  0  0  0  0  0  0
    2.2001   -2.1503   -1.4671 N   0  0  0  0  0  0  0  0  0  0  0  0
    2.9417   -1.2851   -2.1688 O   0  0  0  0  0  0  0  0  0  0  0  0
    4.1887   -1.4020   -1.7865 O   0  0  0  0  0  0  0  0  0  0  0  0
    4.9798   -0.5177   -2.3367 O   0  0  0  0  0  0  0  0  0  0  0  0
    6.1405   -0.4539   -1.5651 C   0  0  1  0  0  0  0  0  0  0  0  0
    7.0102    0.4818   -2.1224 O   0  0  0  0  0  0  0  0  0  0  0  0
    5.8296   -0.0255   -0.1985 N   0  0  0  0  0  0  0  0  0  0  0  0
    7.0944    0.0134    0.5312 C   0  0  0  0  0  3  0  0  0  0  0  0
    7.3677    1.3661    0.9688 N   0  0  0  0  0  0  0  0  0  0  0  0
    6.6210    2.2124    0.2081 O   0  0  0  0  0  1  0  0  0  0  0  0
  1  2  1  0
  2  3  1  0
  3  4  1  0
  4  5  1  0
  5  6  1  6
  6  7  1  0
  5  8  1  0
  8  9  1  1
  8 10  1  0
 10 11  1  1
 10 12  1  0
 12 13  1  0
 13 14  1  1
 13 15  1  0
 15 16  1  0
 16 17  1  0
 17 18  1  6
 17 19  1  0
 19 20  1  0
 20 21  1  0
 21 22  1  0
 22 23  1  0
 23 24  1  0
 24 25  1  0
 25 26  1  0
 26 27  1  0
 20 28  1  0
 28 29  1  0
 29 30  1  0
 30 31  1  0
 31 32  1  0
 32 33  1  0
 33 34  1  6
 33 35  1  0
 35 36  1  0
 36 37  1  0
 37 38  1  0
M  CHG  2  27  -1  38  -1
M  RAD  5   3   2  12   2  22   2  24   2  36   2
M  END
>  <fragInfo>  (1) 
1 2
3
4
5
6 7
8 9
10 11
12
13 14
15
16
17 18
19
20
21
22
23
24
25
26 27
28
29
30
31
32
33 34
35
36
37 38


>  <torsionInfo>  (1) 
2 3 0 1
3 4 1 2
4 5 2 3
5 6 3 4
5 8 3 5
8 10 5 6
10 12 6 7
12 13 7 8
13 15 8 9
15 16 9 10
16 17 10 11
17 19 11 12
19 20 12 13
20 21 13 14
20 28 13 20
21 22 14 15
22 23 15 16
23 24 16 17
24 25 17 18
25 26 18 19
28 29 20 21
29 30 21 22
30 31 22 23
31 32 23 24
32 33 24 25
33 35 25 26
35 36 26 27
36 37 27 28


>  <atomInfo>  (1) 
1  -0.3946905OA
2  0.06004187C 
3  0.04808498C 
4  -0.3028773NA
5  0.05917702C 
6  0.06106342C 
7  -0.3946489OA
8  0.09770888C 
9  -0.3886912OA
10 0.08628962C 
11 -0.3899991OA
12 0.01175889C 
13 0.03367714C 
14 -0.3253776NA
15 0.06667825C 
16 -0.3371013OA
17 0.23499250C 
18 -0.2812641NA
19 -0.2209346OA
20 -0.0293145NA
21 -0.1835770NA
22 0.16786024C 
23 -0.3236445OA
24 0.20951849C 
25 -0.3656556OA
26 -0.0279504C 
27 -0.8335989OA
28 -0.1258969NA
29 -0.0838828NA
30 -0.0952776OA
31 -0.0433408OA
32 -0.1552755OA
33 0.24919646C 
34 -0.3537163OA
35 -0.2492345NA
36 0.07844770C 
37 -0.3829715NA
38 -0.7865901OA


$$$$
