
     RDKit          3D

 15 15  0  0  0  0  0  0  0  0999 V2000
   -1.4341   -2.7228    0.9302 C   0  0  0  0  0  0  0  0  0  0  0  0
   -0.5840   -1.4756    0.9777 C   0  0  0  0  0  3  0  0  0  0  0  0
   -0.3218   -0.9965   -0.4420 C   0  0  1  0  0  0  0  0  0  0  0  0
   -1.6388   -0.7046   -1.1398 C   0  0  2  0  0  0  0  0  0  0  0  0
   -1.3850   -0.2543   -2.4155 O   0  0  0  0  0  0  0  0  0  0  0  0
   -2.4957    0.2621   -0.3623 C   0  0  0  0  0  0  0  0  0  0  0  0
   -2.2896    1.5730   -0.6872 O   0  0  0  0  0  0  0  0  0  0  0  0
   -1.1026    2.0278   -0.4471 O   0  0  0  0  0  0  0  0  0  0  0  0
   -0.3662    1.2948    0.4744 C   0  0  1  0  0  0  0  0  0  0  0  0
   -1.1267    0.7286    1.4661 O   0  0  0  0  0  0  0  0  0  0  0  0
    0.4534    0.2974   -0.3006 C   0  0  1  0  0  0  0  0  0  0  0  0
    1.6715    0.0695    0.4050 N   0  0  0  0  0  0  0  0  0  0  0  0
    2.5540   -0.8075   -0.2993 C   0  0  0  0  0  3  0  0  0  0  0  0
    3.9426   -0.3028   -0.1014 C   0  0  0  0  0  0  0  0  0  0  0  0
    4.1230    1.0109    0.0930 C   0  0  0  0  0  3  0  0  0  0  0  0
  1  2  1  0
  3  2  1  1
  3  4  1  0
  4  5  1  6
  4  6  1  0
  6  7  1  0
  7  8  1  0
  8  9  1  0
  9 10  1  1
  9 11  1  0
 11 12  1  1
 12 13  1  0
 13 14  1  0
 14 15  2  0
 11  3  1  0
M  RAD  3   2   2  13   2  15   2
M  END
>  <fragInfo>  (1) 
3 4 5 6 7 8 9 10 11
1 2
12
13
14 15


>  <torsionInfo>  (1) 
2 3 1 0
11 12 0 2
12 13 2 3
13 14 3 4


>  <atomInfo>  (1) 
1  -0.0618167C 
2  -0.0341820C 
3  0.01045961C 
4  0.08525715C 
5  -0.3902309OA
6  0.10856624C 
7  -0.2312293OA
8  -0.2028722OA
9  0.20413408C 
10 -0.3644111OA
11 0.06732951C 
12 -0.3008971NA
13 0.04484793C 
14 -0.0657666C 
15 -0.0649125C 


$$$$
