
     RDKit          3D

  7  7  0  0  0  0  0  0  0  0999 V2000
    0.8093   -1.3517   -0.1650 C   0  0  0  0  0  0  0  0  0  0  0  0
   -0.5513   -1.4293    0.1084 O   0  0  0  0  0  0  0  0  0  0  0  0
   -1.5245   -0.4444    0.0462 C   0  0  0  0  0  0  0  0  0  0  0  0
   -1.3562    0.8640    0.0532 C   0  0  0  0  0  0  0  0  0  0  0  0
   -0.0735    1.5495    0.1302 C   0  0  0  0  0  0  0  0  0  0  0  0
    1.1607    1.0829    0.0256 C   0  0  0  0  0  0  0  0  0  0  0  0
    1.5354   -0.2710   -0.1985 N   0  0  0  0  0  0  0  0  0  0  0  0
  1  2  1  0
  2  3  1  0
  3  4  2  0
  4  5  1  0
  5  6  2  0
  6  7  1  0
  1  7  2  0
M  END
>  <fragInfo>  (1) 
1 2 3 4 5 6 7


>  <torsionInfo>  (1) 


>  <atomInfo>  (1) 
1  0.17971941C 
2  -0.4534159OA
3  0.09243238C 
4  -0.0253046C 
5  -0.0406765C 
6  0.03032945C 
7  -0.2286231NA


$$$$
