
     RDKit          3D

 28 27  0  0  0  0  0  0  0  0999 V2000
    6.9332    0.4053    2.9501 C   0  0  0  0  0  0  0  0  0  0  0  0
    7.3116   -0.6242    1.8996 C   0  0  0  0  0  0  0  0  0  0  0  0
    6.7522   -1.9800    2.2447 C   0  0  0  0  0  0  0  0  0  0  0  0
    6.7642   -0.1920    0.5667 C   0  0  0  0  0  0  0  0  0  0  0  0
    5.2496   -0.1095    0.6748 C   0  0  0  0  0  0  0  0  0  0  0  0
    4.5940   -0.9130   -0.4226 C   0  0  0  0  0  0  0  0  0  0  0  0
    4.7831   -0.1725   -1.7190 C   0  0  1  0  0  0  0  0  0  0  0  0
    4.2032   -0.9234   -2.8875 C   0  0  0  0  0  0  0  0  0  0  0  0
    4.2084    1.2190   -1.6340 C   0  0  0  0  0  3  0  0  0  0  0  0
    3.6237    1.4188   -0.2470 C   0  0  0  0  0  0  0  0  0  0  0  0
    2.1378    1.1125   -0.2187 C   0  0  0  0  0  0  0  0  0  0  0  0
    1.7476    0.1143   -1.2927 C   0  0  2  0  0  0  0  0  0  0  0  0
    1.2651    0.8786   -2.5185 C   0  0  0  0  0  0  0  0  0  0  0  0
    0.5563   -0.6941   -0.7997 C   0  0  0  0  0  3  0  0  0  0  0  0
    0.3095   -0.3942    0.6542 C   0  0  0  0  0  0  0  0  0  0  0  0
   -1.0621    0.1475    0.9263 C   0  0  1  0  0  0  0  0  0  0  0  0
   -1.0636    1.3753    1.7913 C   0  0  0  0  0  0  0  0  0  0  0  0
   -1.9258    0.2719   -0.2996 C   0  0  0  0  0  0  0  0  0  0  0  0
   -2.9063   -0.8879   -0.3792 C   0  0  0  0  0  0  0  0  0  0  0  0
   -3.8526   -0.8906    0.7996 C   0  0  1  0  0  0  0  0  0  0  0  0
   -3.4587   -0.0438    1.8161 O   0  0  0  0  0  0  0  0  0  0  0  0
   -5.2584   -0.6173    0.3484 C   0  0  0  0  0  0  0  0  0  0  0  0
   -5.2217    0.6614   -0.4659 C   0  0  0  0  0  0  0  0  0  0  0  0
   -6.4368    0.7182   -1.3772 C   0  0  1  0  0  0  0  0  0  0  0  0
   -6.2815   -0.3984   -2.3909 C   0  0  0  0  0  0  0  0  0  0  0  0
   -7.5734    0.4780   -0.6449 O   0  0  0  0  0  0  0  0  0  0  0  0
   -7.6675    0.4884    0.7076 C   0  0  0  0  0  0  0  0  0  0  0  0
   -7.7310    0.4915    1.9180 C   0  0  0  0  0  0  0  0  0  0  0  0
  1  2  1  0
  2  3  1  0
  2  4  1  0
  4  5  1  0
  5  6  1  0
  6  7  1  0
  7  8  1  6
  7  9  1  0
  9 10  1  0
 10 11  1  0
 11 12  1  0
 12 13  1  6
 12 14  1  0
 14 15  1  0
 15 16  1  0
 16 17  1  6
 16 18  1  0
 18 19  1  0
 19 20  1  0
 20 21  1  1
 20 22  1  0
 22 23  1  0
 23 24  1  0
 24 25  1  6
 24 26  1  0
 26 27  1  0
 27 28  3  0
M  RAD  2   9   2  14   2
M  END
>  <fragInfo>  (1) 
1 2 3
4
5
6
7 8
9
10
11
12 13
14
15
16 17
18
19
20 21
22
23
24 25
26 27 28


>  <torsionInfo>  (1) 
2 4 0 1
4 5 1 2
5 6 2 3
6 7 3 4
7 9 4 5
9 10 5 6
10 11 6 7
11 12 7 8
12 14 8 9
14 15 9 10
15 16 10 11
16 18 11 12
18 19 12 13
19 20 13 14
20 22 14 15
22 23 15 16
23 24 16 17
24 26 17 18


>  <atomInfo>  (1) 
1  -0.0627736C 
2  -0.0471324C 
3  -0.0627736C 
4  -0.0509643C 
5  -0.0527983C 
6  -0.0504266C 
7  -0.0411603C 
8  -0.0622342C 
9  -0.0357403C 
10 -0.0496542C 
11 -0.0501520C 
12 -0.0411400C 
13 -0.0622339C 
14 -0.0354871C 
15 -0.0473227C 
16 -0.0439013C 
17 -0.0624975C 
18 -0.0482425C 
19 -0.0267525C 
20 0.05413234C 
21 -0.3931286OA
22 -0.0234621C 
23 -0.0126433C 
24 0.10776987C 
25 -0.0267052C 
26 -0.4437828OA
27 0.10630568C 
28 -0.0764251C 


$$$$
