
     RDKit          3D

 26 26  0  0  0  0  0  0  0  0999 V2000
   -4.7235   -0.9953    2.0085 C   0  0  0  0  0  0  0  0  0  0  0  0
   -3.8615    0.0773    1.4158 C   0  0  0  0  0  3  0  0  0  0  0  0
   -3.4909   -0.2403   -0.0379 C   0  0  1  0  0  0  0  0  0  0  0  0
   -2.7315   -1.5525   -0.0105 C   0  0  0  0  0  0  0  0  0  0  0  0
   -4.6608   -0.4589   -0.7625 O   0  0  0  0  0  0  0  0  0  0  0  0
   -5.1977    0.7144   -1.2597 C   0  0  0  0  0  0  0  0  0  0  0  0
   -5.3720    1.6883   -0.3025 O   0  0  0  0  0  0  0  0  0  0  0  0
   -4.3046    2.3736   -0.0068 O   0  0  0  0  0  0  0  0  0  0  0  0
   -3.2248    2.1468   -0.8192 C   0  0  1  0  0  0  0  0  0  0  0  0
   -2.2896    3.1518   -0.6419 O   0  0  0  0  0  0  0  0  0  0  0  0
   -2.6210    0.8081   -0.6262 C   0  0  1  0  0  0  0  0  0  0  0  0
   -1.3601    0.8645    0.0363 N   0  0  0  0  0  0  0  0  0  0  0  0
   -0.6603   -0.3755   -0.1561 C   0  0  0  0  0  3  0  0  0  0  0  0
    0.6599   -0.4574    0.5410 C   0  0  0  0  0  0  0  0  0  0  0  0
    1.2709   -1.8010    0.1848 C   0  0  0  0  0  0  0  0  0  0  0  0
    1.4095   -1.8070   -1.2227 O   0  0  0  0  0  0  0  0  0  0  0  0
    0.4675   -2.8287    0.6001 O   0  0  0  0  0  0  0  0  0  0  0  0
    2.5520   -1.9226    0.7565 O   0  0  0  0  0  0  0  0  0  0  0  0
    3.3136   -0.8162    0.3186 C   0  0  2  0  0  0  0  0  0  0  0  0
    3.3935   -0.8303   -1.0903 O   0  0  0  0  0  0  0  0  0  0  0  0
    4.7344   -1.0714    0.8216 C   0  0  2  0  0  0  0  0  0  0  0  0
    4.7484   -1.1719    2.2190 O   0  0  0  0  0  0  0  0  0  0  0  0
    5.5960    0.1439    0.4629 C   0  0  0  0  0  3  0  0  0  0  0  0
    5.5776    0.3097   -1.0372 C   0  0  0  0  0  3  0  0  0  0  0  0
    4.9846    1.5488   -1.3549 O   0  0  0  0  0  0  0  0  0  0  0  0
    5.7905    2.5018   -0.8961 O   0  0  0  0  0  0  0  0  0  0  0  0
  1  2  1  0
  2  3  1  0
  3  4  1  1
  3  5  1  0
  5  6  1  0
  6  7  1  0
  7  8  1  0
  8  9  1  0
  9 10  1  1
  9 11  1  0
 11 12  1  1
 12 13  1  0
 13 14  1  0
 14 15  1  0
 15 16  1  0
 15 17  1  0
 15 18  1  0
 18 19  1  0
 19 20  1  6
 19 21  1  0
 21 22  1  1
 21 23  1  0
 23 24  1  0
 24 25  1  0
 25 26  1  0
 11  3  1  0
M  RAD  4   2   2  13   2  23   2  24   2
M  END
>  <fragInfo>  (1) 
3 4 5 6 7 8 9 10 11
1 2
12
13
14
15 16 17
18
19 20
21 22
23
24
25 26


>  <torsionInfo>  (1) 
2 3 1 0
11 12 0 2
12 13 2 3
13 14 3 4
14 15 4 5
15 18 5 6
18 19 6 7
19 21 7 8
21 23 8 9
23 24 9 10
24 25 10 11


>  <atomInfo>  (1) 
1  -0.0593291C 
2  -0.0080220C 
3  0.09162292C 
4  -0.0336556C 
5  -0.3439347OA
6  0.18120605C 
7  -0.2051861OA
8  -0.2004619OA
9  0.20672282C 
10 -0.3643345OA
11 0.09095875C 
12 -0.3022402NA
13 0.03066122C 
14 0.04606886C 
15 0.28123221C 
16 -0.3433564OA
17 -0.3433564OA
18 -0.2952700OA
19 0.18656982C 
20 -0.3656497OA
21 0.11085019C 
22 -0.3874205OA
23 0.03020186C 
24 0.12822827C 
25 -0.2327864OA
26 -0.2514270OA


$$$$
