
     RDKit          3D

  4  3  0  0  0  0  0  0  0  0999 V2000
   -1.4556    0.8713   -0.0868 C   0  0  0  0  0  0  0  0  0  0  0  0
   -0.8703   -0.8340    0.1528 S   0  0  0  0  0  0  0  0  0  0  0  0
    0.8150   -0.8616   -0.1528 O   0  0  0  0  0  0  0  0  0  0  0  0
    1.5109    0.8243    0.0868 Br  0  0  0  0  0  0  0  0  0  0  0  0
  1  2  1  0
  2  3  1  0
  3  4  1  0
M  END
>  <fragInfo>  (1) 
1 2
3 4


>  <torsionInfo>  (1) 
2 3 0 1


>  <atomInfo>  (1) 
1  0.00940038C 
2  0.00378270SA
3  -0.2389420OA
4  0.11534984Br


$$$$
