
     RDKit          3D

 28 29  0  0  0  0  0  0  0  0999 V2000
    5.4677   -3.3597    0.2208 C   0  0  0  0  0  0  0  0  0  0  0  0
    5.0196   -1.9247    0.4711 C   0  0  0  0  0  0  0  0  0  0  0  0
    6.0336   -1.3224    1.4495 C   0  0  0  0  0  0  0  0  0  0  0  0
    5.0841   -1.1740   -0.8410 C   0  0  0  0  0  0  0  0  0  0  0  0
    4.6489    0.2437   -0.6300 C   0  0  0  0  0  0  0  0  0  0  0  0
    3.2544    0.3856   -0.1137 C   0  0  0  0  0  0  0  0  0  0  0  0
    2.2649   -0.2150   -1.0584 C   0  0  1  0  0  0  0  0  0  0  0  0
    2.5082   -1.6841   -1.2808 C   0  0  0  0  0  0  0  0  0  0  0  0
    0.8403    0.0275   -0.5638 C   0  0  1  0  0  0  0  0  0  0  0  0
    0.6921   -0.6065    0.7859 C   0  0  0  0  0  0  0  0  0  0  0  0
    0.5801   -2.0974    0.6572 C   0  0  0  0  0  0  0  0  0  0  0  0
   -0.8986   -2.4342    0.4530 C   0  0  2  0  0  0  0  0  0  0  0  0
   -1.3377   -1.9904   -0.9044 C   0  0  0  0  0  0  0  0  0  0  0  0
   -1.6603   -1.7809    1.5745 C   0  0  0  0  0  0  0  0  0  0  0  0
   -3.1290   -1.6587    1.3081 C   0  0  2  0  0  0  0  0  0  0  0  0
   -3.7271   -2.8684    0.6568 C   0  0  0  0  0  0  0  0  0  0  0  0
   -3.5350   -0.3701    0.6758 C   0  0  0  0  0  0  0  0  0  0  0  0
   -3.7676    0.7398    1.6585 C   0  0  0  0  0  0  0  0  0  0  0  0
   -4.3312    1.9279    0.8810 C   0  0  2  0  0  0  0  0  0  0  0  0
   -5.7179    1.6928    0.7786 O   0  0  0  0  0  0  0  0  0  0  0  0
   -3.7062    1.8811   -0.4975 C   0  0  0  0  0  0  0  0  0  0  0  0
   -2.2016    1.7410   -0.3392 C   0  0  0  0  0  0  0  0  0  0  0  0
   -1.5477    1.9173   -1.6944 C   0  0  1  0  0  0  0  0  0  0  0  0
   -2.2115    3.1143   -2.3834 C   0  0  0  0  0  0  0  0  0  0  0  0
   -0.1002    2.2491   -1.5247 C   0  0  1  0  0  0  0  0  0  0  0  0
    0.1042    3.4784   -0.7018 C   0  0  0  0  0  0  0  0  0  0  0  0
    0.7786    2.5817    0.2370 C   0  0  0  0  0  0  0  0  0  0  0  0
    0.5949    1.5064   -0.4920 C   0  0  0  0  0  0  0  0  0  0  0  0
  1  2  1  0
  2  3  1  0
  2  4  1  0
  4  5  1  0
  5  6  1  0
  6  7  1  0
  7  8  1  1
  7  9  1  0
  9 10  1  1
 10 11  1  0
 11 12  1  0
 12 13  1  6
 12 14  1  0
 14 15  1  0
 15 16  1  6
 15 17  1  0
 17 18  1  0
 18 19  1  0
 19 20  1  6
 19 21  1  0
 21 22  1  0
 22 23  1  0
 23 24  1  1
 23 25  1  0
 25 26  1  1
 26 27  1  0
 27 28  2  0
 28  9  1  0
 28 25  1  0
M  END
>  <fragInfo>  (1) 
9 10 11 12 13 14 15 16 17 18 19 20 21 22 23 24 25 26 27 28
1 2 3
4
5
6
7 8


>  <torsionInfo>  (1) 
7 9 5 0
2 4 1 2
4 5 2 3
5 6 3 4
6 7 4 5


>  <atomInfo>  (1) 
1  -0.0627736C 
2  -0.0471324C 
3  -0.0627736C 
4  -0.0509641C 
5  -0.0527872C 
6  -0.0501293C 
7  -0.0376861C 
8  -0.0619363C 
9  -0.0174410C 
10 -0.0461744C 
11 -0.0501204C 
12 -0.0440052C 
13 -0.0624993C 
14 -0.0481153C 
15 -0.0439319C 
16 -0.0624980C 
17 -0.0482431C 
18 -0.0267547C 
19 0.05400518C 
20 -0.3931310OA
21 -0.0267333C 
22 -0.0476699C 
23 -0.0372939C 
24 -0.0619235C 
25 -0.0139934C 
26 -0.0279191C 
27 -0.0841339C 
28 -0.0671333C 


$$$$
