
     RDKit          3D

 29 34  0  0  0  0  0  0  0  0999 V2000
    4.4322   -1.6445   -3.8856 C   0  0  0  0  0  0  0  0  0  0  0  0
    3.3771   -1.6983   -2.9839 O   0  0  0  0  0  0  0  0  0  0  0  0
    2.9932   -0.6401   -2.1532 C   0  0  0  0  0  0  0  0  0  0  0  0
    3.6292    0.6008   -2.1253 C   0  0  0  0  0  0  0  0  0  0  0  0
    3.1719    1.6349   -1.2536 C   0  0  0  0  0  0  0  0  0  0  0  0
    2.1340    1.2947   -0.5112 C   0  0  0  0  0  0  0  0  0  0  0  0
    1.5631    0.0626   -0.5805 C   0  0  0  0  0  0  0  0  0  0  0  0
    1.9193   -0.9460   -1.3618 C   0  0  0  0  0  0  0  0  0  0  0  0
    1.0955   -2.0315   -1.1577 O   0  0  0  0  0  0  0  0  0  0  0  0
    0.0408   -2.0069   -0.1546 C   0  0  1  0  0  0  0  0  0  0  0  0
   -1.0755   -2.9578   -0.4537 C   0  0  0  0  0  0  0  0  0  0  0  0
   -1.9442   -2.2257   -1.5080 C   0  0  0  0  0  0  0  0  0  0  0  0
   -3.1904   -1.7774   -1.0001 N   0  0  0  0  0  0  0  0  0  0  0  0
   -3.3914   -0.3461   -0.9258 C   0  0  0  0  0  0  0  0  0  0  0  0
    0.6519   -1.7192    1.1419 C   0  0  0  0  0  0  0  0  0  0  0  0
   -0.4043   -0.9020    0.5279 C   0  0  1  0  0  0  0  0  0  0  0  0
   -0.1078    0.2978   -0.3994 N   0  0  0  0  0  0  0  0  0  0  0  0
    0.0023    1.2982    0.1919 N   0  0  0  0  0  0  0  0  0  0  0  0
    1.4790    2.2148    0.3220 C   0  0  0  0  0  0  0  0  0  0  0  0
    0.6882    2.6337    1.0966 C   0  0  0  0  0  0  0  0  0  0  0  0
    0.0558    2.9544    1.7234 C   0  0  0  0  0  0  0  0  0  0  0  0
   -0.8250    3.4197    2.6233 C   0  0  0  0  0  0  0  0  0  0  0  0
   -1.6542    1.9130    2.8436 C   0  0  0  0  0  0  0  0  0  0  0  0
   -1.4740    1.1260    1.5688 C   0  0  2  0  0  0  0  0  0  0  0  0
   -2.7037    1.3676    0.6460 C   0  0  0  0  0  0  0  0  0  0  0  0
   -3.2513    0.1884    0.4177 C   0  0  0  0  0  0  0  0  0  0  0  0
   -3.6675   -0.5833    1.6086 C   0  0  0  0  0  0  0  0  0  0  0  0
   -2.3317   -1.1758    2.1228 C   0  0  0  0  0  0  0  0  0  0  0  0
   -1.2126   -0.3518    1.5699 C   0  0  1  0  0  0  0  0  0  0  0  0
  1  2  1  0
  2  3  1  0
  3  4  2  0
  4  5  1  0
  5  6  2  0
  6  7  1  0
  7  8  2  0
  8  9  1  0
  9 10  1  0
 10 11  1  0
 11 12  1  0
 12 13  1  0
 13 14  1  0
 10 15  1  1
 16 15  1  1
 16 17  1  0
 17 18  1  0
 18 19  2  3
 19 20  1  0
 20 21  3  0
 21 22  1  0
 22 23  1  0
 24 23  1  1
 24 25  1  0
 25 26  2  0
 26 27  1  0
 27 28  1  0
 29 28  1  6
  8  3  1  0
 19  6  1  0
 16 10  1  0
 26 14  1  0
 29 16  1  0
 29 24  1  0
M  END
>  <fragInfo>  (1) 
3 4 5 6 7 8 9 10 11 12 13 14 15 16 17 18 19 20 21 22 23 24 25 26 27 28 29
1 2


>  <torsionInfo>  (1) 
2 3 1 0


>  <atomInfo>  (1) 
1  0.07771726C 
2  -0.4928685OA
3  0.16031402A 
4  -0.0153938A 
5  -0.0481103A 
6  0.01452720A 
7  -0.0058653A 
8  0.16234050A 
9  -0.4806868OA
10 0.13767209C 
11 0.00209898C 
12 -0.0006788C 
13 -0.3128538NA
14 0.01642396C 
15 0.01850316C 
16 0.10177892C 
17 -0.2982158NA
18 -0.1700935NA
19 0.13997190C 
20 -0.0443839C 
21 -0.0961598C 
22 0.00987225C 
23 -0.0355402C 
24 -0.0168316C 
25 -0.0805312C 
26 -0.0601048C 
27 -0.0303756C 
28 -0.0436322C 
29 -0.0058883C 


$$$$
