
     RDKit          3D

  8  8  0  0  0  0  0  0  0  0999 V2000
    0.1117   -1.1768    0.1954 C   0  0  0  0  0  0  0  0  0  0  0  0
   -1.2551   -1.3102    0.4132 O   0  0  0  0  0  0  0  0  0  0  0  0
   -2.1785   -0.3063    0.2355 C   0  0  0  0  0  0  0  0  0  0  0  0
   -1.7424    0.8680   -0.1702 C   0  0  0  0  0  0  0  0  0  0  0  0
   -0.3369    1.0889   -0.4191 C   0  0  0  0  0  0  0  0  0  0  0  0
    0.5649    0.1503   -0.2579 C   0  0  0  0  0  0  0  0  0  0  0  0
    1.9310    0.4029   -0.5110 O   0  0  0  0  0  0  0  0  0  0  0  0
    2.9053    0.2832    0.5141 C   0  0  0  0  0  0  0  0  0  0  0  0
  1  2  1  0
  2  3  1  0
  3  4  2  0
  4  5  1  0
  5  6  2  0
  6  7  1  0
  7  8  1  0
  6  1  1  0
M  END
>  <fragInfo>  (1) 
1 2 3 4 5 6
7 8


>  <torsionInfo>  (1) 
6 7 0 1


>  <atomInfo>  (1) 
1  0.14424985C 
2  -0.4932883OA
3  0.08366551C 
4  -0.0240455C 
5  -0.0176346C 
6  0.13305038C 
7  -0.4974702OA
8  0.07721172C 


$$$$
