
     RDKit          3D

 27 26  0  0  0  0  0  0  0  0999 V2000
   -8.6796    0.1083   -1.5092 C   0  0  0  0  0  0  0  0  0  0  0  0
   -7.3965    0.3192   -0.7294 C   0  0  0  0  0  0  0  0  0  0  0  0
   -7.5371   -0.2012    0.6947 C   0  0  0  0  0  0  0  0  0  0  0  0
   -6.2549   -0.3801   -1.4457 C   0  0  0  0  0  3  0  0  0  0  0  0
   -4.9913   -0.1515   -0.6478 C   0  0  0  0  0  0  0  0  0  0  0  0
   -5.1836   -0.7270    0.7185 C   0  0  0  0  0  0  0  0  0  0  0  0
   -3.9835   -0.5549    1.6118 C   0  0  1  0  0  0  0  0  0  0  0  0
   -4.3157   -1.1824    2.9616 C   0  0  0  0  0  0  0  0  0  0  0  0
   -2.8325   -1.3060    1.0448 C   0  0  0  0  0  3  0  0  0  0  0  0
   -2.3787   -0.9234   -0.3064 C   0  0  0  0  0  0  0  0  0  0  0  0
   -1.9320    0.4677   -0.5031 C   0  0  0  0  0  0  0  0  0  0  0  0
   -0.7996    0.9386    0.3069 C   0  0  2  0  0  0  0  0  0  0  0  0
   -0.9464    0.9209    1.7802 C   0  0  0  0  0  0  0  0  0  0  0  0
   -0.3534    2.3077   -0.1527 C   0  0  0  0  0  3  0  0  0  0  0  0
    0.7937    2.7618    0.7090 C   0  0  0  0  0  0  0  0  0  0  0  0
    1.9031    1.8008    0.6002 C   0  0  0  0  0  0  0  0  0  0  0  0
    1.8394    0.7264   -0.1460 C   0  0  0  0  0  0  0  0  0  0  0  0
    2.9957   -0.1955   -0.2060 C   0  0  0  0  0  0  0  0  0  0  0  0
    4.0933    0.3218    0.6634 C   0  0  2  0  0  0  0  0  0  0  0  0
    3.7111    0.4601    2.1123 C   0  0  0  0  0  0  0  0  0  0  0  0
    4.7853    1.3645    0.1431 O   0  0  0  0  0  0  0  0  0  0  0  0
    5.4787    1.0716   -0.9850 C   0  0  0  0  0  0  0  0  0  0  0  0
    6.5671    0.0765   -0.8519 C   0  0  0  0  0  0  0  0  0  0  0  0
    6.1907   -1.3054   -0.4486 C   0  0  2  0  0  0  0  0  0  0  0  0
    7.4911   -2.1288   -0.3312 C   0  0  0  0  0  0  0  0  0  0  0  0
    5.2723   -2.0567   -1.8596 S   0  0  0  0  0  0  0  0  0  0  0  0
    6.4631   -2.2276   -3.2239 C   0  0  0  0  0  0  0  0  0  0  0  0
  1  2  1  0
  2  3  1  0
  2  4  1  0
  4  5  1  0
  5  6  1  0
  6  7  1  0
  7  8  1  1
  7  9  1  0
  9 10  1  0
 10 11  1  0
 11 12  1  0
 12 13  1  1
 12 14  1  0
 14 15  1  0
 15 16  1  0
 16 17  2  3
 17 18  1  0
 18 19  1  0
 19 20  1  1
 19 21  1  0
 21 22  1  0
 22 23  1  0
 23 24  1  0
 24 25  1  6
 24 26  1  0
 26 27  1  0
M  RAD  3   4   2   9   2  14   2
M  END
>  <fragInfo>  (1) 
1 2 3
4
5
6
7 8
9
10
11
12 13
14
15
16 17
18
19 20
21
22
23
24 25
26 27


>  <torsionInfo>  (1) 
2 4 0 1
4 5 1 2
5 6 2 3
6 7 3 4
7 9 4 5
9 10 5 6
10 11 6 7
11 12 7 8
12 14 8 9
14 15 9 10
15 16 10 11
17 18 11 12
18 19 12 13
19 21 13 14
21 22 14 15
22 23 15 16
23 24 16 17
24 26 17 18


>  <atomInfo>  (1) 
1  -0.0624984C 
2  -0.0440121C 
3  -0.0624984C 
4  -0.0360132C 
5  -0.0496646C 
6  -0.0501524C 
7  -0.0411500C 
8  -0.0622340C 
9  -0.0357401C 
10 -0.0496540C 
11 -0.0501409C 
12 -0.0408433C 
13 -0.0622228C 
14 -0.0319912C 
15 -0.0316797C 
16 -0.0881461C 
17 -0.0859626C 
18 -0.0088334C 
19 0.05809021C 
20 -0.0383717C 
21 -0.3781461OA
22 0.04797813C 
23 -0.0178797C 
24 0.00377812C 
25 -0.0532312C 
26 -0.1622132SA
27 -0.0181297C 


$$$$
