
     RDKit          3D

 12 11  0  0  0  0  0  0  0  0999 V2000
    3.8314    0.0685   -0.8407 O   0  0  0  0  0  0  0  0  0  0  0  0
    3.0276   -0.5437    0.1590 C   0  0  0  0  0  0  0  0  0  0  0  0
    1.7301    0.2186    0.1916 C   0  0  0  0  0  3  0  0  0  0  0  0
    0.7415   -0.3557   -0.7157 N   0  0  0  0  0  0  0  0  0  0  0  0
   -0.4522   -0.7255    0.0156 C   0  0  2  0  0  0  0  0  0  0  0  0
   -0.8672   -2.1308   -0.1026 C   0  0  0  0  0  0  0  0  0  0  0  0
   -1.0963   -2.4946   -1.4416 O   0  0  0  0  0  0  0  0  0  0  0  0
   -1.5602    0.2673   -0.3909 C   0  0  1  0  0  0  0  0  0  0  0  0
   -2.7455   -0.1109    0.2800 O   0  0  0  0  0  0  0  0  0  0  0  0
   -1.1581    1.6190    0.1117 C   0  0  0  0  0  0  0  0  0  0  0  0
   -0.8353    1.7352    1.4112 O   0  0  0  0  0  0  0  0  0  0  0  0
   -0.6158    2.4526   -0.7526 O   0  0  0  0  0  0  0  0  0  0  0  0
  1  2  1  0
  2  3  1  0
  3  4  1  0
  4  5  1  0
  5  6  1  6
  6  7  1  0
  5  8  1  0
  8  9  1  1
  8 10  1  0
 10 11  1  0
 10 12  1  0
M  RAD  1   3   2
M  END
>  <fragInfo>  (1) 
10 11 12
1 2
3
4
5
6 7
8 9


>  <torsionInfo>  (1) 
8 10 6 0
2 3 1 2
3 4 2 3
4 5 3 4
5 6 4 5
5 8 4 6


>  <atomInfo>  (1) 
1  -0.3946905OA
2  0.06004188C 
3  0.04808625C 
4  -0.3027954NA
5  0.06163399C 
6  0.06116334C 
7  -0.3946470OA
8  0.12189808C 
9  -0.3861041OA
10 0.17926995C 
11 -0.3659170OA
12 -0.3659170OA


$$$$
