
     RDKit          3D

 32 33  0  0  0  0  0  0  0  0999 V2000
   -4.7141   -1.9979   -0.3078 C   0  0  0  0  0  0  0  0  0  0  0  0
   -4.6046   -0.7027   -1.0671 C   0  0  1  0  0  0  0  0  0  0  0  0
   -5.9590   -0.0390   -1.0778 C   0  0  0  0  0  0  0  0  0  0  0  0
   -5.8382    1.4072   -0.6626 C   0  0  2  0  0  0  0  0  0  0  0  0
   -4.9144    2.0629   -1.4682 O   0  0  0  0  0  0  0  0  0  0  0  0
   -5.3884    1.5170    0.7726 C   0  0  2  0  0  0  0  0  0  0  0  0
   -4.9992    2.8104    1.0358 O   0  0  0  0  0  0  0  0  0  0  0  0
   -4.2233    0.5899    0.9833 C   0  0  1  0  0  0  0  0  0  0  0  0
   -4.6400   -0.5734    1.6253 O   0  0  0  0  0  0  0  0  0  0  0  0
   -3.6324    0.2045   -0.3558 C   0  0  1  0  0  0  0  0  0  0  0  0
   -2.3961   -0.5407   -0.1708 N   0  0  0  0  0  0  0  0  0  0  0  0
   -1.8583   -0.8692   -1.4606 C   0  0  0  0  0  3  0  0  0  0  0  0
   -0.7685   -1.8843   -1.3367 C   0  0  0  0  0  0  0  0  0  0  0  0
   -0.5805   -2.2420    0.1153 C   0  0  0  0  0  0  0  0  0  0  0  0
    0.4452   -3.1922    0.1973 O   0  0  0  0  0  0  0  0  0  0  0  0
   -1.7206   -2.8268    0.6661 O   0  0  0  0  0  0  0  0  0  0  0  0
   -0.2716   -1.1009    0.8525 O   0  0  0  0  0  0  0  0  0  0  0  0
    0.8829   -0.4864    0.4150 C   0  0  1  0  0  0  0  0  0  0  0  0
    1.1013    0.6343    1.2098 O   0  0  0  0  0  0  0  0  0  0  0  0
    2.0457   -1.4249    0.4066 C   0  0  2  0  0  0  0  0  0  0  0  0
    2.3254   -1.9409    1.6683 O   0  0  0  0  0  0  0  0  0  0  0  0
    3.2787   -0.7907   -0.2011 C   0  0  2  0  0  0  0  0  0  0  0  0
    3.6783    0.2339    0.6571 O   0  0  0  0  0  0  0  0  0  0  0  0
    2.9817   -0.1925   -1.5050 C   0  0  0  0  0  0  0  0  0  0  0  0
    3.6420    0.7532   -2.1048 C   0  0  0  0  0  0  0  0  0  0  0  0
    4.7574    1.4045   -1.6637 O   0  0  0  0  0  0  0  0  0  0  0  0
    4.7863    2.3458   -0.6122 C   0  0  2  0  0  0  0  0  0  0  0  0
    4.9271    3.6528   -1.0706 O   0  0  0  0  0  0  0  0  0  0  0  0
    5.9235    1.9947    0.3219 C   0  0  0  0  0  3  0  0  0  0  0  0
    6.0109    0.4967    0.4962 C   0  0  0  0  0  3  0  0  0  0  0  0
    4.8721   -0.0505    1.3114 C   0  0  1  0  0  0  0  0  0  0  0  0
    4.8507    0.7472    2.6224 C   0  0  0  0  0  2  0  0  0  0  0  0
  2  1  1  1
  2  3  1  0
  3  4  1  0
  4  5  1  6
  4  6  1  0
  6  7  1  6
  6  8  1  0
  8  9  1  6
  8 10  1  0
 10 11  1  1
 11 12  1  0
 12 13  1  0
 13 14  1  0
 14 15  1  0
 14 16  1  0
 14 17  1  0
 17 18  1  0
 18 19  1  1
 18 20  1  0
 20 21  1  1
 20 22  1  0
 22 23  1  1
 22 24  1  0
 24 25  2  3
 25 26  1  0
 26 27  1  0
 27 28  1  6
 27 29  1  0
 29 30  1  0
 30 31  1  0
 31 32  1  1
 10  2  1  0
 31 23  1  0
M  RAD  4  12   2  29   2  30   2  32   3
M  END
>  <fragInfo>  (1) 
22 23 24 25 26 27 28 29 30 31 32
1 2 3 4 5 6 7 8 9 10
11
12
13
14 15 16
17
18 19
20 21


>  <torsionInfo>  (1) 
20 22 8 0
10 11 1 2
11 12 2 3
12 13 3 4
13 14 4 5
14 17 5 6
17 18 6 7
18 20 7 8


>  <atomInfo>  (1) 
1  -0.0608233C 
2  -0.0236285C 
3  -0.0201755C 
4  0.08280077C 
5  -0.3903155OA
6  0.10722522C 
7  -0.3876533OA
8  0.09792917C 
9  -0.3886791OA
10 0.03839482C 
11 -0.3064464NA
12 0.03048220C 
13 0.04606575C 
14 0.28123396C 
15 -0.3433564OA
16 -0.3433564OA
17 -0.2951555OA
18 0.18911210C 
19 -0.3655730OA
20 0.13461042C 
21 -0.3847354OA
22 0.11007316C 
23 -0.3672439OA
24 -0.0182601C 
25 0.08512894C 
26 -0.4726645OA
27 0.19968594C 
28 -0.3584015OA
29 0.03606680C 
30 0.00048891C 
31 0.06568011C 
32 -0.0032699C 


$$$$
