
     RDKit          3D

 29 30  0  0  0  0  0  0  0  0999 V2000
    7.3700   -0.1259    3.5486 C   0  0  0  0  0  0  0  0  0  0  0  0
    6.6489   -0.8537    2.4348 C   0  0  0  0  0  0  0  0  0  0  0  0
    5.2426   -0.2941    2.3867 C   0  0  0  0  0  0  0  0  0  0  0  0
    7.3060   -0.5859    1.1173 C   0  0  0  0  0  0  0  0  0  0  0  0
    6.6593   -1.2654   -0.0368 C   0  0  0  0  0  0  0  0  0  0  0  0
    5.2343   -0.9138   -0.2916 C   0  0  0  0  0  0  0  0  0  0  0  0
    5.0119    0.5553   -0.5768 C   0  0  1  0  0  0  0  0  0  0  0  0
    5.7930    0.9949   -1.8054 C   0  0  0  0  0  0  0  0  0  0  0  0
    3.5363    0.6884   -0.9739 C   0  0  0  0  0  3  0  0  0  0  0  0
    2.7061    0.2063    0.1853 C   0  0  0  0  0  0  0  0  0  0  0  0
    1.2365    0.3208   -0.1656 C   0  0  0  0  0  0  0  0  0  0  0  0
    0.9345    1.7877   -0.4571 C   0  0  1  0  0  0  0  0  0  0  0  0
    1.7862    2.2785   -1.6242 C   0  0  0  0  0  0  0  0  0  0  0  0
   -0.5183    1.8477   -0.8842 C   0  0  0  0  0  0  0  0  0  0  0  0
   -0.7207    1.0088   -2.1058 C   0  0  1  0  0  0  0  0  0  0  0  0
   -0.3677   -0.4119   -1.8605 C   0  0  0  0  0  0  0  0  0  0  0  0
   -2.0482    1.1908   -2.7441 C   0  0  0  0  0  0  0  0  0  0  0  0
   -3.1841    0.8626   -1.8532 C   0  0  0  0  0  0  0  0  0  0  0  0
   -3.2431   -0.5115   -1.3352 C   0  0  1  0  0  0  0  0  0  0  0  0
   -3.3610   -2.0526   -2.7476 I   0  0  0  0  0  0  0  0  0  0  0  0
   -2.5481   -0.8226   -0.0719 C   0  0  0  0  0  0  0  0  0  0  0  0
   -3.0228   -0.0366    1.1069 C   0  0  0  0  0  0  0  0  0  0  0  0
   -4.4573   -0.2034    1.4599 C   0  0  1  0  0  0  0  0  0  0  0  0
   -5.4808    0.1651    0.4384 C   0  0  2  0  0  0  0  0  0  0  0  0
   -6.6669    0.5339    1.0775 O   0  0  0  0  0  0  0  0  0  0  0  0
   -5.5358   -1.1883    0.0428 O   0  0  0  0  0  0  0  0  0  0  0  0
   -5.0723   -1.5551    1.3108 C   0  0  2  0  0  0  0  0  0  0  0  0
   -6.3125   -1.5708    2.2155 C   0  0  0  0  0  0  0  0  0  0  0  0
   -6.9261   -0.2016    2.2094 C   0  0  0  0  0  3  0  0  0  0  0  0
  1  2  1  0
  2  3  1  0
  2  4  1  0
  4  5  1  0
  5  6  1  0
  6  7  1  0
  7  8  1  6
  7  9  1  0
  9 10  1  0
 10 11  1  0
 11 12  1  0
 12 13  1  6
 12 14  1  0
 14 15  1  0
 15 16  1  1
 15 17  1  0
 17 18  1  0
 18 19  1  0
 19 20  1  6
 19 21  1  0
 21 22  1  0
 23 22  1  6
 23 24  1  0
 24 25  1  1
 24 26  1  0
 26 27  1  0
 27 28  1  1
 28 29  1  0
 27 23  1  0
 29 25  1  0
M  RAD  2   9   2  29   2
M  END
>  <fragInfo>  (1) 
23 24 25 26 27 28 29
1 2 3
4
5
6
7 8
9
10
11
12 13
14
15 16
17
18
19 20
21
22


>  <torsionInfo>  (1) 
22 23 16 0
2 4 1 2
4 5 2 3
5 6 3 4
6 7 4 5
7 9 5 6
9 10 6 7
10 11 7 8
11 12 8 9
12 14 9 10
14 15 10 11
15 17 11 12
17 18 12 13
18 19 13 14
19 21 14 15
21 22 15 16


>  <atomInfo>  (1) 
1  -0.0627736C 
2  -0.0471324C 
3  -0.0627736C 
4  -0.0509643C 
5  -0.0527983C 
6  -0.0504266C 
7  -0.0411603C 
8  -0.0622342C 
9  -0.0357404C 
10 -0.0496644C 
11 -0.0504170C 
12 -0.0440162C 
13 -0.0624995C 
14 -0.0481165C 
15 -0.0439898C 
16 -0.0624990C 
17 -0.0497032C 
18 -0.0411467C 
19 0.01098465C 
20 -0.0826217I 
21 -0.0408521C 
22 -0.0420812C 
23 0.03655531C 
24 0.16323835C 
25 -0.3462185OA
26 -0.3484295OA
27 0.07088579C 
28 0.00304276C 
29 0.08950803C 


$$$$
