
     RDKit          3D

 21 20  0  0  0  0  0  0  0  0999 V2000
    5.2778    0.9009   -0.5429 O   0  0  0  0  0  0  0  0  0  0  0  0
    5.0797   -0.4159   -0.5931 O   0  0  0  0  0  0  0  0  0  0  0  0
    4.0091   -0.7428    0.2419 C   0  0  0  0  0  3  0  0  0  0  0  0
    3.6851    0.3179    1.0939 O   0  0  0  0  0  0  0  0  0  0  0  0
    2.9634    1.2314    0.3691 C   0  0  2  0  0  0  0  0  0  0  0  0
    2.5717    2.4143    1.1948 C   0  0  0  0  0  0  0  0  0  0  0  0
    1.9112    0.6864   -0.5187 C   0  0  0  0  0  3  0  0  0  0  0  0
    0.6735    0.2100    0.1864 C   0  0  1  0  0  0  0  0  0  0  0  0
    0.0287    1.2704    0.9403 N   0  0  0  0  0  0  0  0  0  0  0  0
   -0.4159    2.3230    0.0887 C   0  0  0  0  0  3  0  0  0  0  0  0
   -1.5653    1.9927   -0.8050 C   0  0  0  0  0  0  0  0  0  0  0  0
   -2.8650    2.3147   -0.1230 C   0  0  0  0  0  3  0  0  0  0  0  0
   -2.9246    3.7925    0.1981 C   0  0  0  0  0  0  0  0  0  0  0  0
   -4.5165    4.1145    1.0149 S   0  0  0  0  0  0  0  0  0  0  0  0
   -0.2907   -0.3095   -0.8377 C   0  0  0  0  0  0  0  0  0  0  0  0
   -1.5727   -0.8308   -0.2936 C   0  0  0  0  0  3  0  0  0  0  0  0
   -1.5189   -2.1925   -0.0016 O   0  0  0  0  0  0  0  0  0  0  0  0
   -2.7646   -2.6038    0.4796 C   0  0  0  0  0  3  0  0  0  0  0  0
   -3.2798   -3.8521   -0.1568 C   0  0  0  0  0  0  0  0  0  0  0  0
   -2.8435   -5.0960    0.5580 C   0  0  0  0  0  3  0  0  0  0  0  0
   -1.6426   -5.5253    0.0321 O   0  0  0  0  0  0  0  0  0  0  0  0
  1  2  1  0
  2  3  1  0
  3  4  1  0
  4  5  1  0
  5  6  1  1
  5  7  1  0
  8  7  1  6
  8  9  1  0
  9 10  1  0
 10 11  1  0
 11 12  1  0
 12 13  1  0
 13 14  1  0
  8 15  1  0
 15 16  1  0
 16 17  1  0
 17 18  1  0
 18 19  1  0
 19 20  1  0
 20 21  1  0
M  RAD  7   3   2   7   2  10   2  12   2  16   2  18   2  20   2
M  END
>  <fragInfo>  (1) 
1 2
3
4
5 6
7
8
9
10
11
12
13 14
15
16
17
18
19
20 21


>  <torsionInfo>  (1) 
2 3 0 1
3 4 1 2
4 5 2 3
5 7 3 4
7 8 4 5
8 9 5 6
8 15 5 11
9 10 6 7
10 11 7 8
11 12 8 9
12 13 9 10
15 16 11 12
16 17 12 13
17 18 13 14
18 19 14 15
19 20 15 16


>  <atomInfo>  (1) 
1  -0.2489199OA
2  -0.2014109OA
3  0.24539973C 
4  -0.3423086OA
5  0.06287941C 
6  -0.0382007C 
7  0.00717293C 
8  0.01531046C 
9  -0.3091791NA
10 0.02266916C 
11 -0.0323138C 
12 -0.0273497C 
13 -0.0065955C 
14 -0.1790619SA
15 -0.0082658C 
16 0.08570275C 
17 -0.3694218OA
18 0.08680735C 
19 0.00462101C 
20 0.08253552C 
21 -0.3903296OA


$$$$
