
     RDKit          3D

 19 20  0  0  0  0  0  0  0  0999 V2000
    5.9276    0.5905    0.6625 C   0  0  0  0  0  0  0  0  0  0  0  0
    5.0709    0.9207   -0.4909 O   0  0  0  0  0  0  0  0  0  0  0  0
    4.1859   -0.2947   -0.4117 C   0  0  0  0  0  3  0  0  0  0  0  0
    3.2836    0.1428    0.5925 O   0  0  0  0  0  0  0  0  0  0  0  0
    2.0454    0.4990    0.0970 C   0  0  2  0  0  0  0  0  0  0  0  0
    2.0004    2.0735    0.2865 C   0  0  0  0  0  0  0  0  0  0  0  0
    0.9771   -0.0125    1.0323 C   0  0  0  0  0  3  0  0  0  0  0  0
   -0.4721    0.2838    0.4791 C   0  0  1  0  0  0  0  0  0  0  0  0
   -0.7793   -0.6885   -0.5650 C   0  0  1  0  0  0  0  0  0  0  0  0
   -0.2094   -1.9878   -0.6055 C   0  0  0  0  0  0  0  0  0  0  0  0
   -0.7528   -3.1726   -0.1274 C   0  0  0  0  0  0  0  0  0  0  0  0
    0.0039   -4.4206   -0.2772 C   0  0  0  0  0  0  0  0  0  0  0  0
   -1.4526   -0.1870    1.3643 O   0  0  0  0  0  0  0  0  0  0  0  0
   -2.0900   -0.6785    0.2143 C   0  0  1  0  0  0  0  0  0  0  0  0
   -3.0709    0.3536   -0.3433 C   0  0  1  0  0  0  0  0  0  0  0  0
   -4.0165    0.6271    0.6707 O   0  0  0  0  0  0  0  0  0  0  0  0
   -4.6561    1.7933    0.1964 C   0  0  0  0  0  3  0  0  0  0  0  0
   -3.4987    2.5559   -0.4825 C   0  0  0  0  0  0  0  0  0  0  0  0
   -2.4962    1.6019   -0.6011 O   0  0  0  0  0  0  0  0  0  0  0  0
  1  2  1  0
  2  3  1  0
  3  4  1  0
  4  5  1  0
  5  6  1  1
  5  7  1  0
  8  7  1  1
  8  9  1  0
  9 10  1  1
 10 11  2  3
 11 12  1  0
  8 13  1  0
 14 13  1  1
 14 15  1  0
 15 16  1  1
 16 17  1  0
 17 18  1  0
 18 19  1  0
 14  9  1  0
 19 15  1  0
M  RAD  3   3   2   7   2  17   2
M  END
>  <fragInfo>  (1) 
15 16 17 18 19
1 2
3
4
5 6
7
8 9 13 14
10 11 12


>  <torsionInfo>  (1) 
14 15 6 0
2 3 1 2
3 4 2 3
4 5 3 4
5 7 4 5
7 8 5 6
9 10 6 7


>  <atomInfo>  (1) 
1  0.03885651C 
2  -0.3513313OA
3  0.20894193C 
4  -0.3445139OA
5  0.06382954C 
6  -0.0381617C 
7  0.01972621C 
8  0.07282141C 
9  0.03482672C 
10 -0.0803541C 
11 -0.0911882C 
12 -0.0469778C 
13 -0.3678502OA
14 0.11747987C 
15 0.18457526C 
16 -0.3414623OA
17 0.11270511C 
18 0.07892455C 
19 -0.3471409OA


$$$$
