
     RDKit          3D

 20 21  0  0  0  0  0  0  0  0999 V2000
   -2.3305    1.1516    0.8679 C   0  0  0  0  0  0  0  0  0  0  0  0
   -3.0720   -0.1419    0.9802 C   0  0  1  0  0  0  0  0  0  0  0  0
   -3.8243   -0.4883   -0.2637 C   0  0  0  0  0  0  0  0  0  0  0  0
   -2.1379   -1.2737    1.3645 C   0  0  0  0  0  0  0  0  0  0  0  0
   -1.1003   -1.3858    0.2853 C   0  0  1  0  0  0  0  0  0  0  0  0
   -0.3684   -2.6912    0.2813 C   0  0  0  0  0  0  0  0  0  0  0  0
    1.1220   -2.3626    0.4437 C   0  0  1  0  0  0  0  0  0  0  0  0
    1.8934   -3.6355    0.3566 C   0  0  0  0  0  0  0  0  0  0  0  0
    1.4642   -1.3700   -0.6228 C   0  0  0  0  0  0  0  0  0  0  0  0
    2.9284   -1.0891   -0.7329 C   0  0  0  0  0  0  0  0  0  0  0  0
    3.3786   -0.0473    0.2634 C   0  0  0  0  0  0  0  0  0  0  0  0
    2.4302    1.1134    0.3635 C   0  0  1  0  0  0  0  0  0  0  0  0
    3.2437    2.3057    0.8729 C   0  0  0  0  0  0  0  0  0  0  0  0
    1.7527    1.4898   -1.2599 S   0  0  0  0  0  0  0  0  0  0  0  0
    0.3904    2.6411   -1.2156 C   0  0  0  0  0  0  0  0  0  0  0  0
   -0.6549    2.2903   -0.2268 C   0  0  0  0  0  0  0  0  0  0  0  0
   -0.8805    3.2142    0.8367 N   0  0  0  0  0  1  0  0  0  0  0  0
   -1.3816    1.1804   -0.2761 C   0  0  0  0  0  0  0  0  0  0  0  0
   -1.1956    0.1646   -1.3691 C   0  0  0  0  0  0  0  0  0  0  0  0
   -1.6577   -1.0656   -0.9494 O   0  0  0  0  0  0  0  0  0  0  0  0
  1  2  1  0
  2  3  1  6
  2  4  1  0
  5  4  1  1
  5  6  1  0
  6  7  1  0
  7  8  1  6
  7  9  1  0
  9 10  1  0
 10 11  1  0
 11 12  1  0
 12 13  1  6
 12 14  1  0
 14 15  1  0
 15 16  1  0
 16 17  1  0
 16 18  2  3
 18 19  1  0
 19 20  1  0
 18  1  1  0
 20  5  1  0
M  CHG  1  17   1
M  RAD  1  17   2
M  END
>  <fragInfo>  (1) 
1 2 3 4 5 6 7 8 9 10 11 12 13 14 15 16 17 18 19 20


>  <torsionInfo>  (1) 


>  <atomInfo>  (1) 
1  -0.0204394C 
2  -0.0377536C 
3  -0.0621022C 
4  -0.0238101C 
5  0.05843873C 
6  -0.0241208C 
7  -0.0418143C 
8  -0.0624142C 
9  -0.0505763C 
10 -0.0520068C 
11 -0.0415287C 
12 0.00242331C 
13 -0.0532915C 
14 -0.1476053SA
15 0.08813545C 
16 0.32386314C 
17 0.46887174N 
18 0.03280455C 
19 0.07449515C 
20 -0.3736159OA


$$$$
