
     RDKit          3D

 24 24  0  0  0  0  0  0  0  0999 V2000
   -2.6572   -1.5100   -1.2625 O   0  0  0  0  0  0  0  0  0  0  0  0
   -3.9625   -1.6249   -0.7337 C   0  0  0  0  0  0  0  0  0  0  0  0
   -4.4985   -0.2886   -0.3204 C   0  0  0  0  0  3  0  0  0  0  0  0
   -4.0838    0.0644    1.0253 N   0  0  0  0  0  0  0  0  0  0  0  0
   -3.1498    1.1455    0.9556 C   0  0  2  0  0  0  0  0  0  0  0  0
   -3.7555    2.4932    1.2558 C   0  0  0  0  0  0  0  0  0  0  0  0
   -2.7222    3.4396    1.1476 O   0  0  0  0  0  0  0  0  0  0  0  0
   -2.5007    1.1356   -0.4097 C   0  0  1  0  0  0  0  0  0  0  0  0
   -2.1692    2.3930   -0.8618 O   0  0  0  0  0  0  0  0  0  0  0  0
   -1.2860    0.2163   -0.3024 C   0  0  2  0  0  0  0  0  0  0  0  0
   -0.4545    0.3526   -1.4059 O   0  0  0  0  0  0  0  0  0  0  0  0
   -1.8345   -1.1934   -0.1811 C   0  0  2  0  0  0  0  0  0  0  0  0
   -0.7511   -2.0581   -0.0848 O   0  0  0  0  0  0  0  0  0  0  0  0
    0.0046   -1.6710    1.0115 C   0  0  0  0  0  0  0  0  0  0  0  0
    0.4974   -0.3917    0.9469 O   0  0  0  0  0  0  0  0  0  0  0  0
    1.1852   -0.1747    2.0476 O   0  0  0  0  0  0  0  0  0  0  0  0
    2.5162   -0.4693    1.7472 C   0  0  2  0  0  0  0  0  0  0  0  0
    3.3470   -0.2744    2.8483 O   0  0  0  0  0  0  0  0  0  0  0  0
    3.0342    0.4588    0.6529 C   0  0  0  0  0  0  0  0  0  0  0  0
    4.3731    0.0822    0.4259 O   0  0  0  0  0  0  0  0  0  0  0  0
    4.3159   -1.2644    0.0236 C   0  0  0  0  0  3  0  0  0  0  0  0
    4.5827   -1.4010   -1.3250 O   0  0  0  0  0  0  0  0  0  0  0  0
    5.2809   -0.3365   -1.8516 C   0  0  0  0  0  3  0  0  0  0  0  0
    4.6885    0.8765   -1.5782 O   0  0  0  0  0  0  0  0  0  0  0  0
  1  2  1  0
  2  3  1  0
  3  4  1  0
  4  5  1  0
  5  6  1  6
  6  7  1  0
  5  8  1  0
  8  9  1  1
  8 10  1  0
 10 11  1  6
 10 12  1  0
 12 13  1  6
 13 14  1  0
 14 15  1  0
 15 16  1  0
 16 17  1  0
 17 18  1  1
 17 19  1  0
 19 20  1  0
 20 21  1  0
 21 22  1  0
 22 23  1  0
 23 24  1  0
 12  1  1  0
M  RAD  3   3   2  21   2  23   2
M  END
>  <fragInfo>  (1) 
1 2 3 4 5 8 9 10 11 12
6 7
13
14
15
16
17 18
19
20
21
22
23 24


>  <torsionInfo>  (1) 
5 6 0 1
12 13 0 2
13 14 2 3
14 15 3 4
15 16 4 5
16 17 5 6
17 19 6 7
19 20 7 8
20 21 8 9
21 22 9 10
22 23 10 11


>  <atomInfo>  (1) 
1  -0.3480902OA
2  0.06684540C 
3  0.04849834C 
4  -0.3028644NA
5  0.05937284C 
6  0.06106697C 
7  -0.3946488OA
8  0.10238137C 
9  -0.3884909OA
10 0.13231661C 
11 -0.3850270OA
12 0.18849053C 
13 -0.3205481OA
14 0.18367441C 
15 -0.2050581OA
16 -0.1997498OA
17 0.21214096C 
18 -0.3638568OA
19 0.10386837C 
20 -0.3424342OA
21 0.21198341C 
22 -0.3132027OA
23 0.20915378C 
24 -0.3638728OA


$$$$
