
     RDKit          3D

  5  4  0  0  0  0  0  0  0  0999 V2000
   -2.3173    0.4253    0.0922 C   0  0  0  0  0  0  0  0  0  0  0  0
   -1.2564   -0.3042   -0.2711 C   0  0  0  0  0  0  0  0  0  0  0  0
    0.0334    0.2320    0.1417 C   0  0  0  0  0  0  0  0  0  0  0  0
    1.1173   -0.4755   -0.2068 C   0  0  0  0  0  0  0  0  0  0  0  0
    2.4231    0.1223    0.2441 C   0  0  0  0  0  0  0  0  0  0  0  0
  1  2  2  0
  2  3  1  0
  3  4  2  3
  4  5  1  0
M  END
>  <fragInfo>  (1) 
3 4 5
1 2


>  <torsionInfo>  (1) 
2 3 1 0


>  <atomInfo>  (1) 
1  -0.0990771C 
2  -0.0698210C 
3  -0.0671426C 
4  -0.0876819C 
5  -0.0466786C 


$$$$
