
     RDKit          3D

 27 28  0  0  0  0  0  0  0  0999 V2000
   -4.0217   -2.2931    0.2506 C   0  0  0  0  0  0  0  0  0  0  0  0
   -4.5270   -1.2402   -0.7062 C   0  0  1  0  0  0  0  0  0  0  0  0
   -5.8282   -0.6558   -0.1799 C   0  0  0  0  0  0  0  0  0  0  0  0
   -5.6471    0.7675    0.2787 C   0  0  2  0  0  0  0  0  0  0  0  0
   -5.5653    1.6303   -0.8227 O   0  0  0  0  0  0  0  0  0  0  0  0
   -4.4812    0.9360    1.2137 C   0  0  2  0  0  0  0  0  0  0  0  0
   -4.3281    2.2779    1.5041 O   0  0  0  0  0  0  0  0  0  0  0  0
   -3.2081    0.3151    0.6524 C   0  0  1  0  0  0  0  0  0  0  0  0
   -2.8859   -0.7437    1.4999 O   0  0  0  0  0  0  0  0  0  0  0  0
   -3.5066   -0.1210   -0.7444 C   0  0  1  0  0  0  0  0  0  0  0  0
   -2.3650   -0.5009   -1.4988 N   0  0  0  0  0  0  0  0  0  0  0  0
   -1.2026    0.2731   -1.3956 C   0  0  0  0  0  3  0  0  0  0  0  0
   -0.7337    0.4827   -0.1209 C   0  0  0  0  0  0  0  0  0  0  0  0
    0.4770    0.4533    0.4974 O   0  0  0  0  0  0  0  0  0  0  0  0
    1.0945   -0.7332    0.4665 C   0  0  2  0  0  0  0  0  0  0  0  0
    2.2821   -0.3830    1.3835 O   0  0  0  0  0  0  0  0  0  0  0  0
    2.5951    1.2672    1.3672 S   0  0  0  0  0  0  0  0  0  0  0  0
    4.3005    1.5380    1.4801 O   0  0  0  0  0  0  0  0  0  0  0  0
    4.9840    0.3892    1.0935 C   0  0  0  0  0  3  0  0  0  0  0  0
    5.8091    0.6367   -0.1451 C   0  0  1  0  0  0  0  0  0  0  0  0
    6.3382   -0.5507   -0.5903 O   0  0  0  0  0  0  0  0  0  0  0  0
    4.9339    1.1043   -1.1346 O   0  0  0  0  0  0  0  0  0  0  0  0
    4.1605    0.0396   -1.5963 C   0  0  0  0  0  0  0  0  0  0  0  0
    2.7235    0.2358   -1.2039 C   0  0  0  0  0  3  0  0  0  0  0  0
    2.0557   -0.9073   -0.7874 C   0  0  1  0  0  0  0  0  0  0  0  0
    2.6404   -2.1603   -0.5187 O   0  0  0  0  0  0  0  0  0  0  0  0
    3.9059   -2.0575   -0.3817 O   0  0  0  0  0  0  0  0  0  0  0  0
  2  1  1  1
  2  3  1  0
  3  4  1  0
  4  5  1  6
  4  6  1  0
  6  7  1  6
  6  8  1  0
  8  9  1  1
  8 10  1  0
 10 11  1  1
 11 12  1  0
 12 13  1  0
 13 14  1  0
 15 14  1  6
 15 16  1  0
 16 17  1  0
 17 18  1  0
 18 19  1  0
 19 20  1  0
 20 21  1  6
 20 22  1  0
 22 23  1  0
 23 24  1  0
 24 25  1  0
 25 26  1  1
 26 27  1  0
 10  2  1  0
 25 15  1  0
M  RAD  3  12   2  19   2  24   2
M  END
>  <fragInfo>  (1) 
15 16 17 18 19 20 21 22 23 24 25
1 2 3 4 5 6 7 8 9 10
11
12
13
14
26 27


>  <torsionInfo>  (1) 
14 15 5 0
25 26 0 6
10 11 1 2
11 12 2 3
12 13 3 4
13 14 4 5


>  <atomInfo>  (1) 
1  -0.0608233C 
2  -0.0236270C 
3  -0.0201755C 
4  0.08280077C 
5  -0.3903155OA
6  0.10722524C 
7  -0.3876533OA
8  0.09793062C 
9  -0.3886791OA
10 0.03847606C 
11 -0.3045624NA
12 0.04844140C 
13 0.06687950C 
14 -0.3472336OA
15 0.20232353C 
16 -0.2562917OA
17 0.16148962SA
18 -0.2795253OA
19 0.15751325C 
20 0.18484437C 
21 -0.3656954OA
22 -0.3495915OA
23 0.05593988C 
24 0.02475774C 
25 0.14990203C 
26 -0.2302546OA
27 -0.2513354OA


$$$$
