
     RDKit          3D

 29 29  0  0  0  0  0  0  0  0999 V2000
   -2.4673    4.1281   -0.7803 C   0  0  0  0  0  0  0  0  0  0  0  0
   -1.3824    3.9668    0.2339 C   0  0  0  0  0  0  0  0  0  0  0  0
   -1.0054    5.2715    0.8989 C   0  0  0  0  0  0  0  0  0  0  0  0
   -1.6572    2.8732    1.2153 C   0  0  0  0  0  0  0  0  0  0  0  0
   -1.7922    1.5716    0.4540 C   0  0  2  0  0  0  0  0  0  0  0  0
   -2.0660    0.4502    1.3787 C   0  0  0  0  0  0  0  0  0  0  0  0
   -2.4810    0.6281    2.5239 O   0  0  0  0  0  0  0  0  0  0  0  0
   -1.8513   -0.9641    0.9665 C   0  0  0  0  0  3  0  0  0  0  0  0
   -3.0037   -1.3541    0.0351 C   0  0  0  0  0  0  0  0  0  0  0  0
   -3.5984   -2.6841    0.4156 C   0  0  1  0  0  0  0  0  0  0  0  0
   -4.8834   -2.8541   -0.3601 C   0  0  0  0  0  0  0  0  0  0  0  0
   -2.6460   -3.8130    0.0336 C   0  0  0  0  0  0  0  0  0  0  0  0
   -1.3782   -3.7066    0.8615 C   0  0  0  0  0  3  0  0  0  0  0  0
   -0.2309   -3.1650    0.0222 C   0  0  0  0  0  3  0  0  0  0  0  0
   -0.5559   -3.2072   -1.4541 C   0  0  0  0  0  0  0  0  0  0  0  0
   -0.3520   -1.8382   -2.0399 C   0  0  0  0  0  0  0  0  0  0  0  0
    0.9388   -1.3507   -1.7862 O   0  0  0  0  0  0  0  0  0  0  0  0
    0.7732   -0.0198   -1.3863 C   0  0  2  0  0  0  0  0  0  0  0  0
    2.0479    0.5229   -0.7657 C   0  0  0  0  0  0  0  0  0  0  0  0
    3.1768    0.4662   -1.7538 C   0  0  1  0  0  0  0  0  0  0  0  0
    2.8828    1.2232   -2.8809 O   0  0  0  0  0  0  0  0  0  0  0  0
    4.4122    1.0089   -1.0669 C   0  0  0  0  0  3  0  0  0  0  0  0
    4.6822    0.1593    0.1006 N   0  0  0  0  0  0  0  0  0  0  0  0
    5.6399   -0.8605    0.0453 C   0  0  0  0  0  0  0  0  0  0  0  0
    6.4683   -1.7458    0.0184 C   0  0  0  0  0  0  0  0  0  0  0  0
   -0.5925    1.3822   -0.3121 N   0  0  0  0  0  0  0  0  0  0  0  0
   -0.2958    0.0784   -0.5061 O   0  0  0  0  0  0  0  0  0  0  0  0
    0.4763    2.1136    0.3034 C   0  0  0  0  0  0  0  0  0  0  0  0
    0.7413    1.7189    1.5973 F   0  0  0  0  0  0  0  0  0  0  0  0
  1  2  1  0
  2  3  1  0
  2  4  1  0
  5  4  1  1
  5  6  1  0
  6  7  2  0
  6  8  1  0
  8  9  1  0
  9 10  1  0
 10 11  1  6
 10 12  1  0
 12 13  1  0
 13 14  1  0
 14 15  1  0
 15 16  1  0
 16 17  1  0
 17 18  1  0
 18 19  1  1
 19 20  1  0
 20 21  1  6
 20 22  1  0
 22 23  1  0
 23 24  1  0
 24 25  3  0
  5 26  1  0
 26 27  1  0
 26 28  1  0
 28 29  1  0
 27 18  1  0
M  RAD  4   8   2  13   2  14   2  22   2
M  END
>  <fragInfo>  (1) 
5 6 7 8 9 10 11 12 13 14 15 16 17 18 26 27
1 2 3
4
19
20 21
22
23 24 25
28 29


>  <torsionInfo>  (1) 
4 5 2 0
18 19 0 3
26 28 0 7
2 4 1 2
19 20 3 4
20 22 4 5
22 23 5 6


>  <atomInfo>  (1) 
1  -0.0627003C 
2  -0.0451149C 
3  -0.0627003C 
4  -0.0256355C 
5  0.09731607C 
6  0.15577145C 
7  -0.2974943OA
8  0.02943071C 
9  -0.0401276C 
10 -0.0432833C 
11 -0.0624753C 
12 -0.0472781C 
13 -0.0348410C 
14 -0.0329072C 
15 -0.0260780C 
16 0.05010504C 
17 -0.3506808OA
18 0.17966177C 
19 0.02841146C 
20 0.08178347C 
21 -0.3906761OA
22 0.08342562C 
23 -0.3382329NA
24 0.00126527C 
25 -0.0971118C 
26 -0.1447747NA
27 -0.2638985OA
28 0.16542625C 
29 -0.2315270F 


$$$$
