
     RDKit          2D

 57 62  0  0  0  0  0  0  0  0999 V2000
   14.7818   -4.6009    0.0000 C   0  0  0  0  0  0  0  0  0  0  0  0
   14.1888   -3.2230    0.0000 C   0  0  0  0  0  0  0  0  0  0  0  0
   15.1729   -2.0910    0.0000 C   0  0  0  0  0  0  0  0  0  0  0  0
   14.9014   -0.6158    0.0000 C   0  0  0  0  0  0  0  0  0  0  0  0
   13.5787    0.0918    0.0000 O   0  0  0  0  0  0  0  0  0  0  0  0
   13.6794   -1.1952    0.0000 C   0  0  0  0  0  0  0  0  0  0  0  0
   13.4986   -0.4548    0.0000 O   0  0  0  0  0  0  0  0  0  0  0  0
   13.0939   -1.8688    0.0000 C   0  0  0  0  0  0  0  0  0  0  0  0
   10.9717   -1.2888    0.0000 O   0  0  0  0  0  0  0  0  0  0  0  0
   12.6901   -3.1595    0.0000 C   0  0  0  0  0  0  0  0  0  0  0  0
   11.8054   -1.9482    0.0000 N   0  0  0  0  0  0  0  0  0  0  0  0
   10.3071   -2.0192    0.0000 C   0  0  0  0  0  3  0  0  0  0  0  0
    9.7766   -0.6162    0.0000 C   0  0  0  0  0  0  0  0  0  0  0  0
   10.9470    0.3220    0.0000 O   0  0  0  0  0  0  0  0  0  0  0  0
   12.2009   -0.5012    0.0000 C   0  0  0  0  0  0  0  0  0  0  0  0
   12.3316    0.9931    0.0000 O   0  0  0  0  0  0  0  0  0  0  0  0
   13.6911    1.6270    0.0000 C   0  0  0  0  0  0  0  0  0  0  0  0
   14.9198    0.7666    0.0000 O   0  0  0  0  0  0  0  0  0  0  0  0
   13.8218    3.1213    0.0000 C   0  0  0  0  0  0  0  0  0  0  0  0
   15.1813    3.7552    0.0000 O   0  0  0  0  0  0  0  0  0  0  0  0
   12.5931    3.9817    0.0000 C   0  0  0  0  0  3  0  0  0  0  0  0
   12.7238    5.4759    0.0000 C   0  0  0  0  0  0  0  0  0  0  0  0
   14.1544    5.9270    0.0000 O   0  0  0  0  0  0  0  0  0  0  0  0
   14.8470    7.2575    0.0000 O   0  0  0  0  0  0  0  0  0  0  0  0
   14.3960    8.6881    0.0000 O   0  0  0  0  0  0  0  0  0  0  0  0
   13.0654    9.3807    0.0000 C   0  0  0  0  0  0  0  0  0  0  0  0
   13.1962   10.8750    0.0000 O   0  0  0  0  0  0  0  0  0  0  0  0
   11.6349    8.9297    0.0000 C   0  0  0  0  0  3  0  0  0  0  0  0
   10.9422    7.5991    0.0000 O   0  0  0  0  0  0  0  0  0  0  0  0
   11.3933    6.1686    0.0000 C   0  0  0  0  0  0  0  0  0  0  0  0
   10.2442    5.2044    0.0000 O   0  0  0  0  0  0  0  0  0  0  0  0
   10.5047    3.7272    0.0000 C   0  0  0  0  0  0  0  0  0  0  0  0
   11.9142    3.2141    0.0000 N   0  0  0  0  0  0  0  0  0  0  0  0
    9.3556    2.7630    0.0000 C   0  0  0  0  0  3  0  0  0  0  0  0
    7.9461    3.2760    0.0000 C   0  0  0  0  0  3  0  0  0  0  0  0
    6.7970    2.3118    0.0000 O   0  0  0  0  0  0  0  0  0  0  0  0
    5.3875    2.8249    0.0000 C   0  0  0  0  0  3  0  0  0  0  0  0
    4.2384    1.8607    0.0000 C   0  0  0  0  0  3  0  0  0  0  0  0
    2.8289    2.3737    0.0000 C   0  0  0  0  0  0  0  0  0  0  0  0
    1.6798    1.4095    0.0000 C   0  0  0  0  0  0  0  0  0  0  0  0
    2.1929    0.0000    0.0000 O   0  0  0  0  0  0  0  0  0  0  0  0
    1.6798   -1.4095    0.0000 C   0  0  0  0  0  3  0  0  0  0  0  0
    0.3808   -2.1595    0.0000 O   0  0  0  0  0  0  0  0  0  0  0  0
   -1.0964   -1.8991    0.0000 C   0  0  0  0  0  0  0  0  0  0  0  0
   -2.0606   -0.7500    0.0000 C   0  0  0  0  0  0  0  0  0  0  0  0
   -2.0606    0.7500    0.0000 C   0  0  0  0  0  0  0  0  0  0  0  0
   -1.0964    1.8991    0.0000 O   0  0  0  0  0  0  0  0  0  0  0  0
    0.3808    2.1595    0.0000 C   0  0  0  0  0  0  0  0  0  0  0  0
    0.5671    3.6684    0.0000 O   0  0  0  0  0  0  0  0  0  0  0  0
   -0.1829    4.9674    0.0000 C   0  0  0  0  0  0  0  0  0  0  0  0
   -1.5532    5.5775    0.0000 C   0  0  0  0  0  0  0  0  0  0  0  0
   -1.3964    7.0693    0.0000 O   0  0  0  0  0  0  0  0  0  0  0  0
   -3.0204    5.2656    0.0000 C   0  0  0  0  0  0  0  0  0  0  0  0
   -3.7704    6.5647    0.0000 O   0  0  0  0  0  0  0  0  0  0  0  0
   -4.0241    4.1509    0.0000 C   0  0  0  0  0  0  0  0  0  0  0  0
   -4.1809    2.6591    0.0000 O   0  0  0  0  0  0  0  0  0  0  0  0
   -3.4309    1.3601    0.0000 O   0  0  0  0  0  0  0  0  0  0  0  0
  2  1  1  6
  2  3  1  0
  4  3  1  1
  4  5  1  0
  4  6  1  0
  6  7  1  1
  6  8  1  0
  8  9  1  6
  8 10  1  0
 10 11  1  6
 11 12  1  0
 12 13  1  0
 13 14  1  0
 14 15  1  0
 15 16  1  0
 16 17  1  0
 17 18  1  6
 17 19  1  0
 19 20  1  1
 19 21  1  0
 21 22  1  0
 22 23  1  0
 23 24  1  0
 24 25  1  0
 25 26  1  0
 26 27  1  6
 26 28  1  0
 28 29  1  0
 29 30  1  0
 30 31  1  1
 31 32  1  0
 32 33  1  6
 32 34  1  0
 34 35  1  0
 35 36  1  0
 36 37  1  0
 37 38  1  0
 38 39  1  0
 39 40  1  0
 40 41  1  0
 41 42  1  0
 42 43  1  0
 43 44  1  0
 44 45  1  0
 45 46  1  0
 46 47  1  0
 47 48  1  0
 48 49  1  1
 49 50  1  0
 50 51  1  0
 51 52  1  1
 51 53  1  0
 53 54  1  1
 53 55  1  0
 55 56  1  0
 56 57  1  0
 10  2  1  0
 15  5  1  0
 15 11  1  0
 30 22  1  0
 48 40  1  0
 57 46  1  0
M  RAD  8  12   2  21   2  28   2  34   2  35   2  37   2  38   2  42   2
M  END
>  <fragInfo>  (1) 
40 41 42 43 44 45 46 47 48 49 50 51 52 53 54 55 56 57
1 2 3 4 5 6 7 8 9 10 11 12 13 14 15
16
17 18
19 20
21
22 23 24 25 26 27 28 29 30
31
32 33
34
35
36
37
38
39


>  <torsionInfo>  (1) 
39 40 14 0
15 16 1 2
16 17 2 3
17 19 3 4
19 21 4 5
21 22 5 6
30 31 6 7
31 32 7 8
32 34 8 9
34 35 9 10
35 36 10 11
36 37 11 12
37 38 12 13
38 39 13 14


>  <atomInfo>  (1) 
1  -0.0608100C 
2  -0.0230960C 
3  -0.0195985C 
4  0.09362633C 
5  -0.3077245OA
6  0.10779916C 
7  -0.3876375OA
8  0.09845982C 
9  -0.3886650OA
10 0.04874882C 
11 -0.2136591NA
12 0.05920429C 
13 0.07141728C 
14 -0.3121968OA
15 0.35648162C 
16 -0.2815538OA
17 0.18806148C 
18 -0.3656085OA
19 0.11101028C 
20 -0.3874176OA
21 0.03276992C 
22 0.15274936C 
23 -0.1969090OA
24 -0.0647865OA
25 -0.1711602OA
26 0.22088181C 
27 -0.3634730OA
28 0.14580561C 
29 -0.3381111OA
30 0.18958999C 
31 -0.3314390OA
32 0.11442844C 
33 -0.3056784NA
34 0.03650243C 
35 0.09170722C 
36 -0.3687939OA
37 0.08771924C 
38 -0.0042259C 
39 -0.0157810C 
40 0.11221930C 
41 -0.3392360OA
42 0.20939922C 
43 -0.3477653OA
44 0.05490846C 
45 0.02515947C 
46 0.19603048C 
47 -0.3178777OA
48 0.18662671C 
49 -0.3470697OA
50 0.07851138C 
51 0.10565961C 
52 -0.3879134OA
53 0.10859125C 
54 -0.3877877OA
55 0.11086539C 
56 -0.2311834OA
57 -0.2041961OA


$$$$
