
     RDKit          3D

 30 32  0  0  0  0  0  0  0  0999 V2000
    1.5088   -3.2604    1.1746 C   0  0  0  0  0  0  0  0  0  0  0  0
    2.1851   -2.3895    0.4815 C   0  0  0  0  0  0  0  0  0  0  0  0
    3.2634   -1.6452    1.1142 C   0  0  0  0  0  0  0  0  0  0  0  0
    3.3619   -0.3584    0.8118 C   0  0  0  0  0  0  0  0  0  0  0  0
    4.4162    0.4727    1.4000 C   0  0  0  0  0  0  0  0  0  0  0  0
    3.9410    1.9248    1.5312 C   0  0  0  0  0  0  0  0  0  0  0  0
    2.8884    2.1551    0.5876 N   0  0  0  0  0  0  0  0  0  0  0  0
    1.9651    3.1989    0.9883 C   0  0  0  0  0  0  0  0  0  0  0  0
    1.5047    3.9658   -0.2067 C   0  0  0  0  0  0  0  0  0  0  0  0
   -0.0013    3.9139   -0.3710 C   0  0  0  0  0  0  0  0  0  0  0  0
   -0.3189    2.8854   -1.3318 N   0  0  0  0  0  0  0  0  0  0  0  0
   -1.8911    2.1688   -1.2450 S   0  0  2  0  0  0  0  0  0  0  0  0
   -3.2303    3.3268   -1.4723 C   0  0  0  0  0  0  0  0  0  0  0  0
    0.6419    2.5143   -2.2770 C   0  0  0  0  0  0  0  0  0  0  0  0
    0.7685    1.3205   -2.6730 N   0  0  0  0  0  0  0  0  0  0  0  0
    0.1122    0.1581   -2.3633 C   0  0  0  0  0  0  0  0  0  0  0  0
   -0.1702   -0.4118   -1.2315 C   0  0  0  0  0  0  0  0  0  0  0  0
    0.2106    0.1649    0.0099 N   0  0  0  0  0  0  0  0  0  0  0  0
   -0.5523    0.9333    0.7155 C   0  0  0  0  0  0  0  0  0  0  0  0
   -1.8536    1.1696    0.1346 N   0  0  0  0  0  0  0  0  0  0  0  0
   -3.1581    0.4647    0.8333 S   0  0  2  0  0  0  0  0  0  0  0  0
   -3.1143   -1.0312    1.0755 O   0  0  0  0  0  0  0  0  0  0  0  0
   -2.6203   -2.1799    0.4977 C   0  0  0  0  0  0  0  0  0  0  0  0
   -3.3192   -3.2679    0.2211 C   0  0  0  0  0  0  0  0  0  0  0  0
   -4.7295    1.4045    0.8294 C   0  0  0  0  0  0  0  0  0  0  0  0
   -0.9060   -1.7012   -1.2372 C   0  0  0  0  0  0  0  0  0  0  0  0
   -1.1672   -2.2656    0.1260 C   0  0  2  0  0  0  0  0  0  0  0  0
   -0.7146   -3.6372    0.3049 C   0  0  0  0  0  0  0  0  0  0  0  0
    0.4180   -4.0925    0.7491 C   0  0  0  0  0  0  0  0  0  0  0  0
    0.5610   -5.9012    0.8226 S   0  0  0  0  0  0  0  0  0  0  0  0
  1  2  2  3
  2  3  1  0
  3  4  2  3
  4  5  1  0
  5  6  1  0
  6  7  1  0
  7  8  1  0
  8  9  1  0
  9 10  1  0
 10 11  1  0
 11 12  1  0
 12 13  1  1
 11 14  1  0
 14 15  2  3
 15 16  1  0
 16 17  2  3
 17 18  1  0
 18 19  2  3
 19 20  1  0
 20 21  1  0
 21 22  1  0
 22 23  1  0
 23 24  2  0
 21 25  1  6
 17 26  1  0
 27 26  1  6
 27 28  1  0
 28 29  2  3
 29 30  1  0
 29  1  1  0
 20 12  1  0
 27 23  1  0
M  END
>  <fragInfo>  (1) 
1 2 3 4 5 6 7 8 9 10 11 12 13 14 15 16 17 18 19 20 21 22 23 24 25 26 27 28 29 30


>  <torsionInfo>  (1) 


>  <atomInfo>  (1) 
1  -0.0491691C 
2  -0.0614915C 
3  -0.0661886C 
4  -0.0832738C 
5  -0.0221539C 
6  -0.0014145C 
7  -0.3163559NA
8  -0.0031554C 
9  -0.0218767C 
10 0.03138409C 
11 -0.3106391N 
12 -0.0913711S 
13 -0.0025182C 
14 0.10027549C 
15 -0.2443226NA
16 0.05018915C 
17 0.06151840C 
18 -0.2401835NA
19 0.11256500C 
20 -0.2442537N 
21 -0.0192110S 
22 -0.4373971OA
23 0.11362627C 
24 -0.0587688C 
25 0.01304065C 
26 0.00472435C 
27 0.04233172C 
28 -0.0600896C 
29 0.00074504C 
30 -0.1437375SA


$$$$
