
     RDKit          3D

 44 43  0  0  0  0  0  0  0  0999 V2000
   -7.0580    3.8514   -0.0987 C   0  0  0  0  0  0  0  0  0  0  0  0
   -5.7798    3.9879    0.6359 C   0  0  0  0  0  0  0  0  0  0  0  0
   -4.8794    3.0332    0.5323 C   0  0  0  0  0  0  0  0  0  0  0  0
   -5.1325    1.8652   -0.2875 C   0  0  0  0  0  0  0  0  0  0  0  0
   -4.2091    0.9287   -0.3689 C   0  0  0  0  0  0  0  0  0  0  0  0
   -4.4358   -0.2968   -1.2093 C   0  0  1  0  0  0  0  0  0  0  0  0
   -3.8039   -1.3643   -0.5614 O   0  0  0  0  0  0  0  0  0  0  0  0
   -5.9369   -0.5645   -1.1220 C   0  0  0  0  0  0  0  0  0  0  0  0
   -6.2808   -0.7960    0.3505 C   0  0  1  0  0  0  0  0  0  0  0  0
   -7.6683   -1.0430    0.4257 O   0  0  0  0  0  0  0  0  0  0  0  0
   -5.5470   -2.0867    0.7327 C   0  0  0  0  0  0  0  0  0  0  0  0
   -6.0268   -3.1858   -0.1171 C   0  0  0  0  0  0  0  0  0  0  0  0
   -6.8933   -2.9858   -0.9817 O   0  0  0  0  0  0  0  0  0  0  0  0
   -5.5055   -4.4798    0.0442 O   0  0  0  0  0  1  0  0  0  0  0  0
   -3.6337    3.1514    1.2414 C   0  0  0  0  0  0  0  0  0  0  0  0
   -3.3726    4.3384    2.0824 C   0  0  0  0  0  0  0  0  0  0  0  0
   -2.7287    2.2055    1.1442 C   0  0  0  0  0  0  0  0  0  0  0  0
   -1.4465    2.2359    1.8197 C   0  0  0  0  0  0  0  0  0  0  0  0
   -0.5958    1.2378    1.6651 C   0  0  0  0  0  0  0  0  0  0  0  0
    0.5784    1.3354    2.3247 F   0  0  0  0  0  0  0  0  0  0  0  0
   -0.9352    0.0804    0.8074 C   0  0  2  0  0  0  0  0  0  0  0  0
   -0.9145   -1.1237    1.5830 N   0  0  0  0  0  0  0  0  0  0  0  0
    0.3513   -1.4762    2.1388 C   0  0  0  0  0  0  0  0  0  0  0  0
    1.3854   -1.9003    1.1152 C   0  0  0  0  0  0  0  0  0  0  0  0
    2.6575   -2.2337    1.9080 C   0  0  0  0  0  0  0  0  0  0  0  0
    3.1019   -0.9796    2.6482 C   0  0  0  0  0  0  0  0  0  0  0  0
    3.3801    0.0510    1.5435 C   0  0  1  0  0  0  0  0  0  0  0  0
    3.8258    1.3629    2.1662 C   0  0  0  0  0  0  0  0  0  0  0  0
    4.4452   -0.4787    0.6001 C   0  0  0  0  0  0  0  0  0  0  0  0
    4.0136   -1.7563   -0.0442 C   0  0  0  0  0  0  0  0  0  0  0  0
    5.0804   -2.2776   -0.9757 C   0  0  0  0  0  0  0  0  0  0  0  0
    5.4226   -1.3407   -2.0865 C   0  0  0  0  0  0  0  0  0  0  0  0
    5.9181   -0.0607   -1.6105 N   0  0  0  0  0  0  0  0  0  0  0  0
    6.3009    0.9831   -2.9353 S   0  0  0  0  0  0  0  0  0  0  0  0
    7.2439    2.1215   -2.4552 N   0  0  0  0  0  0  0  0  0  0  0  0
    7.6585    2.1828   -1.0962 C   0  0  0  0  0  0  0  0  0  0  0  0
    9.0330    1.6791   -0.8998 C   0  0  0  0  0  0  0  0  0  0  0  0
    9.5492    1.6530    0.1848 O   0  0  0  0  0  0  0  0  0  0  0  0
    9.8085    1.1888   -2.0684 C   0  0  0  0  0  0  0  0  0  0  0  0
   -0.0519    0.0762   -0.2708 O   0  0  0  0  0  0  0  0  0  0  0  0
   -0.0360   -0.8370   -1.2950 C   0  0  0  0  0  0  0  0  0  0  0  0
    0.5512   -0.6096   -2.4582 C   0  0  0  0  0  0  0  0  0  0  0  0
    1.2402    0.6161   -2.7874 C   0  0  0  0  0  0  0  0  0  0  0  0
    1.3265    1.5694   -1.9638 O   0  0  0  0  0  0  0  0  0  0  0  0
  1  2  1  0
  2  3  2  0
  3  4  1  0
  4  5  2  0
  5  6  1  0
  6  7  1  1
  6  8  1  0
  8  9  1  0
  9 10  1  6
  9 11  1  0
 11 12  1  0
 12 13  2  0
 12 14  1  0
  3 15  1  0
 15 16  1  0
 15 17  2  3
 17 18  1  0
 18 19  2  3
 19 20  1  0
 19 21  1  0
 21 22  1  1
 22 23  1  0
 23 24  1  0
 24 25  1  0
 25 26  1  0
 26 27  1  0
 27 28  1  1
 27 29  1  0
 29 30  1  0
 30 31  1  0
 31 32  1  0
 32 33  1  0
 33 34  1  0
 34 35  2  3
 35 36  1  0
 36 37  1  0
 37 38  2  0
 37 39  1  0
 21 40  1  0
 40 41  1  0
 41 42  2  3
 42 43  1  0
 43 44  2  0
M  CHG  1  14  -1
M  END
>  <fragInfo>  (1) 
1 2 3
4 5
6 7
8
9 10
11
12 13 14
15 16 17
18 19 20
21
22
23
24
25
26
27 28
29
30
31
32
33
34 35
36
37 38 39
40
41 42
43 44


>  <torsionInfo>  (1) 
3 4 0 1
3 15 0 7
5 6 1 2
6 8 2 3
8 9 3 4
9 11 4 5
11 12 5 6
17 18 7 8
19 21 8 9
21 22 9 10
21 40 9 24
22 23 10 11
23 24 11 12
24 25 12 13
25 26 13 14
26 27 14 15
27 29 15 16
29 30 16 17
30 31 17 18
31 32 18 19
32 33 19 20
33 34 20 21
35 36 21 22
36 37 22 23
40 41 24 25
42 43 25 26


>  <atomInfo>  (1) 
1  -0.0460797C 
2  -0.0801281C 
3  -0.0272312C 
4  -0.0565000C 
5  -0.0555174C 
6  0.07484421C 
7  -0.3889349OA
8  0.00322775C 
9  0.06196204C 
10 -0.3926245OA
11 0.01315211C 
12 0.04395647C 
13 -0.5500681OA
14 -0.5500681OA
15 -0.0441226C 
16 -0.0391897C 
17 -0.0559697C 
18 -0.0249059C 
19 0.15547333C 
20 -0.2060986F 
21 0.20141092C 
22 -0.2764619NA
23 -0.0011084C 
24 -0.0405163C 
25 -0.0518412C 
26 -0.0506640C 
27 -0.0442784C 
28 -0.0625097C 
29 -0.0506635C 
30 -0.0518084C 
31 -0.0397054C 
32 0.00644896C 
33 -0.2578789NA
34 -0.0473041S 
35 -0.2452334NA
36 0.10515904C 
37 0.15134291C 
38 -0.2979054OA
39 -0.0036656C 
40 -0.4761569OA
41 0.08906817C 
42 0.01251236C 
43 0.14539205C 
44 -0.2984411OA


$$$$
