
     RDKit          3D

 25 25  0  0  0  0  0  0  0  0999 V2000
   -2.1629   -1.5379    1.9071 C   0  0  0  0  0  0  0  0  0  0  0  0
   -2.9089   -1.1438    0.6687 C   0  0  1  0  0  0  0  0  0  0  0  0
   -4.1546   -1.9108    0.5445 C   0  0  0  0  0  0  0  0  0  0  0  0
   -5.4222   -1.1898    0.4961 C   0  0  2  0  0  0  0  0  0  0  0  0
   -5.9926   -1.3079   -0.7751 O   0  0  0  0  0  0  0  0  0  0  0  0
   -5.4506    0.2167    0.9481 C   0  0  2  0  0  0  0  0  0  0  0  0
   -5.8967    1.0369   -0.0882 O   0  0  0  0  0  0  0  0  0  0  0  0
   -4.1667    0.7645    1.4561 C   0  0  1  0  0  0  0  0  0  0  0  0
   -3.9343    0.2667    2.7352 O   0  0  0  0  0  0  0  0  0  0  0  0
   -3.0728    0.3268    0.4887 C   0  0  1  0  0  0  0  0  0  0  0  0
   -1.8493    1.0592    0.7060 N   0  0  0  0  0  0  0  0  0  0  0  0
   -0.8926    0.6220   -0.2941 C   0  0  0  0  0  3  0  0  0  0  0  0
    0.3559    0.2025    0.4896 C   0  0  2  0  0  0  0  0  0  0  0  0
    0.7875    1.4663    1.2429 C   0  0  0  0  0  0  0  0  0  0  0  0
    1.3853   -0.1791   -0.3729 O   0  0  0  0  0  0  0  0  0  0  0  0
    1.7510    0.8631   -1.2244 C   0  0  1  0  0  0  0  0  0  0  0  0
    2.1952    1.9676   -0.4774 O   0  0  0  0  0  0  0  0  0  0  0  0
    2.9686    0.3965   -2.0118 C   0  0  2  0  0  0  0  0  0  0  0  0
    2.6532   -0.7401   -2.7481 O   0  0  0  0  0  0  0  0  0  0  0  0
    4.1092    0.1403   -1.0459 C   0  0  2  0  0  0  0  0  0  0  0  0
    4.3421    1.3349   -0.3621 O   0  0  0  0  0  0  0  0  0  0  0  0
    5.3483   -0.1629   -1.8732 C   0  0  0  0  0  3  0  0  0  0  0  0
    6.5452   -0.4357   -0.9810 C   0  0  0  0  0  0  0  0  0  0  0  0
    6.1844   -1.6323   -0.1288 C   0  0  0  0  0  3  0  0  0  0  0  0
    7.2781   -1.8985    0.6997 O   0  0  0  0  0  0  0  0  0  0  0  0
  2  1  1  1
  2  3  1  0
  3  4  1  0
  4  5  1  6
  4  6  1  0
  6  7  1  6
  6  8  1  0
  8  9  1  1
  8 10  1  0
 10 11  1  1
 11 12  1  0
 12 13  1  0
 13 14  1  6
 13 15  1  0
 15 16  1  0
 16 17  1  1
 16 18  1  0
 18 19  1  1
 18 20  1  0
 20 21  1  6
 20 22  1  0
 22 23  1  0
 23 24  1  0
 24 25  1  0
 10  2  1  0
M  RAD  3  12   2  22   2  24   2
M  END
>  <fragInfo>  (1) 
1 2 3 4 5 6 7 8 9 10
11
12
13 14
15
16 17
18 19
20 21
22
23
24 25


>  <torsionInfo>  (1) 
10 11 0 1
11 12 1 2
12 13 2 3
13 15 3 4
15 16 4 5
16 18 5 6
18 20 6 7
20 22 7 8
22 23 8 9
23 24 9 10


>  <atomInfo>  (1) 
1  -0.0608233C 
2  -0.0236268C 
3  -0.0201755C 
4  0.08280077C 
5  -0.3903155OA
6  0.10722524C 
7  -0.3876533OA
8  0.09793080C 
9  -0.3886791OA
10 0.03848614C 
11 -0.3043247NA
12 0.05132158C 
13 0.07487610C 
14 -0.0369435C 
15 -0.3453959OA
16 0.18328316C 
17 -0.3657348OA
18 0.13067744C 
19 -0.3850928OA
20 0.08814676C 
21 -0.3899184OA
22 -0.0044525C 
23 -0.0186674C 
24 0.08025217C 
25 -0.3904234OA


$$$$
