
     RDKit          3D

 47 49  0  0  0  0  0  0  0  0999 V2000
    4.6962    2.3588   -1.0572 C   0  0  0  0  0  0  0  0  0  0  0  0
    5.6746    1.2354   -1.3245 C   0  0  1  0  0  0  0  0  0  0  0  0
    6.4682    1.5817   -2.5768 C   0  0  0  0  0  0  0  0  0  0  0  0
    7.8164    2.1923   -2.1660 C   0  0  2  0  0  0  0  0  0  0  0  0
    8.6536    1.1783   -1.6715 O   0  0  0  0  0  0  0  0  0  0  0  0
    7.5287    3.1593   -1.0426 C   0  0  2  0  0  0  0  0  0  0  0  0
    8.5932    4.0561   -0.8848 O   0  0  0  0  0  0  0  0  0  0  0  0
    7.2229    2.3866    0.1972 C   0  0  1  0  0  0  0  0  0  0  0  0
    6.3796    3.1069    1.0480 O   0  0  0  0  0  0  0  0  0  0  0  0
    6.6342    1.0509   -0.1434 C   0  0  1  0  0  0  0  0  0  0  0  0
    5.8909    0.5151    0.9528 N   0  0  0  0  0  0  0  0  0  0  0  0
    4.8630    1.4455    1.3754 C   0  0  0  0  0  3  0  0  0  0  0  0
    3.6148    0.7591    1.8736 C   0  0  0  0  0  0  0  0  0  0  0  0
    3.7906   -0.6028    1.7691 O   0  0  0  0  0  0  0  0  0  0  0  0
    4.0141   -1.0996    0.5479 C   0  0  0  0  0  0  0  0  0  0  0  0
    3.1384   -0.9908   -0.4626 O   0  0  0  0  0  0  0  0  0  0  0  0
    1.9126   -1.5531   -0.3207 C   0  0  0  0  0  0  0  0  0  0  0  0
    1.1567   -1.0745    0.6946 O   0  0  0  0  0  0  0  0  0  0  0  0
    0.8681    0.1811    0.5583 O   0  0  0  0  0  0  0  0  0  0  0  0
   -0.5012    0.3457    0.5856 C   0  0  2  0  0  0  0  0  0  0  0  0
   -0.8907    1.6656    0.4459 O   0  0  0  0  0  0  0  0  0  0  0  0
   -1.0035   -0.2173    1.8985 C   0  0  2  0  0  0  0  0  0  0  0  0
   -0.4414    0.4357    2.9960 O   0  0  0  0  0  0  0  0  0  0  0  0
   -0.8093   -1.7127    1.9710 C   0  0  0  0  0  3  0  0  0  0  0  0
   -1.5942   -2.3308    0.8490 C   0  0  1  0  0  0  0  0  0  0  0  0
   -1.4032   -3.8364    0.7890 C   0  0  0  0  0  3  0  0  0  0  0  0
   -1.0981   -4.1333   -0.5438 O   0  0  0  0  0  0  0  0  0  0  0  0
   -2.1461   -4.5827   -1.2272 N   0  0  0  0  0  0  0  0  0  0  0  0
   -3.6952   -4.1109   -0.5846 S   0  0  0  0  0  0  0  0  0  0  0  0
   -4.2574   -2.6138   -1.1305 O   0  0  0  0  0  0  0  0  0  0  0  0
   -3.3678   -1.6222   -0.6745 C   0  0  2  0  0  0  0  0  0  0  0  0
   -2.2612   -1.5255   -1.5171 O   0  0  0  0  0  0  0  0  0  0  0  0
   -3.0059   -1.9276    0.7332 C   0  0  2  0  0  0  0  0  0  0  0  0
   -3.5754   -1.0490    1.7823 C   0  0  2  0  0  0  0  0  0  0  0  0
   -3.4993   -1.6282    3.0491 F   0  0  0  0  0  0  0  0  0  0  0  0
   -5.0638   -0.8706    1.4261 C   0  0  0  0  0  0  0  0  0  0  0  0
   -5.1585   -0.2064    0.0680 C   0  0  1  0  0  0  0  0  0  0  0  0
   -6.6628   -0.1075   -0.2163 C   0  0  2  0  0  0  0  0  0  0  0  0
   -7.2362   -1.3855   -0.7259 C   0  0  0  0  0  2  0  0  0  0  0  0
   -7.0018    1.1065   -1.0282 C   0  0  0  0  0  0  0  0  0  0  0  0
   -6.5607    1.0575   -2.3340 O   0  0  0  0  0  0  0  0  0  0  0  0
   -5.4661    1.9312   -2.4595 C   0  0  0  0  0  0  0  0  0  0  0  0
   -4.3075    1.2386   -2.1690 O   0  0  0  0  0  0  0  0  0  0  0  0
   -3.8228    1.6895   -0.9432 C   0  0  0  0  0  3  0  0  0  0  0  0
   -4.6024    1.2050    0.2239 C   0  0  2  0  0  0  0  0  0  0  0  0
   -3.8107    1.2281    1.3581 O   0  0  0  0  0  0  0  0  0  0  0  0
   -5.6737    2.0709    0.5053 F   0  0  0  0  0  0  0  0  0  0  0  0
  2  1  1  1
  2  3  1  0
  3  4  1  0
  4  5  1  1
  4  6  1  0
  6  7  1  1
  6  8  1  0
  8  9  1  1
  8 10  1  0
 10 11  1  1
 11 12  1  0
 12 13  1  0
 13 14  1  0
 14 15  1  0
 15 16  1  0
 16 17  1  0
 17 18  1  0
 18 19  1  0
 19 20  1  0
 20 21  1  1
 20 22  1  0
 22 23  1  1
 22 24  1  0
 25 24  1  1
 25 26  1  0
 26 27  1  0
 27 28  1  0
 28 29  1  0
 29 30  1  0
 30 31  1  0
 31 32  1  6
 31 33  1  0
 33 34  1  1
 34 35  1  1
 34 36  1  0
 37 36  1  1
 37 38  1  0
 38 39  1  6
 38 40  1  0
 40 41  1  0
 41 42  1  0
 42 43  1  0
 43 44  1  0
 44 45  1  0
 45 46  1  1
 45 47  1  0
 10  2  1  0
 33 25  1  0
 45 37  1  0
M  RAD  5  12   2  24   2  26   2  39   3  44   2
M  END
>  <fragInfo>  (1) 
37 38 39 40 41 42 43 44 45 46 47
1 2 3 4 5 6 7 8 9 10
11
12
13
14
15
16
17
18
19
20 21
22 23
24
25 26 27 28 29 30 31 32 33
34 35
36


>  <torsionInfo>  (1) 
36 37 16 0
10 11 1 2
11 12 2 3
12 13 3 4
13 14 4 5
14 15 5 6
15 16 6 7
16 17 7 8
17 18 8 9
18 19 9 10
19 20 10 11
20 22 11 12
22 24 12 13
24 25 13 14
33 34 14 15
34 36 15 16


>  <atomInfo>  (1) 
1  -0.0608233C 
2  -0.0236270C 
3  -0.0201755C 
4  0.08280077C 
5  -0.3903155OA
6  0.10722524C 
7  -0.3876533OA
8  0.09793062C 
9  -0.3886791OA
10 0.03847605C 
11 -0.3045626NA
12 0.04842701C 
13 0.06641675C 
14 -0.3536270OA
15 0.14931411C 
16 -0.3262163OA
17 0.18323636C 
18 -0.2050614OA
19 -0.1994259OA
20 0.21489851C 
21 -0.3636388OA
22 0.11122628C 
23 -0.3874016OA
24 0.00179244C 
25 0.00612744C 
26 0.11235641C 
27 -0.2828019OA
28 -0.1191449NA
29 0.10809505SA
30 -0.2674549OA
31 0.17474063C 
32 -0.3666747OA
33 0.04800500C 
34 0.10865497C 
35 -0.2469503F 
36 -0.0124374C 
37 0.02860929C 
38 -0.0058448C 
39 -0.0289213C 
40 0.05302269C 
41 -0.3550935OA
42 0.14703073C 
43 -0.3432724OA
44 0.15087520C 
45 0.23894396C 
46 -0.3594305OA
47 -0.2092079F 


$$$$
