
     RDKit          3D

 42 43  0  0  0  0  0  0  0  0999 V2000
    8.8761    2.1861    0.4922 O   0  0  0  0  0  0  0  0  0  0  0  0
    8.2869    3.1685    0.0201 N   0  0  0  0  0  4  0  0  0  0  0  0
    8.8783    4.3978    0.0871 O   0  0  0  0  0  0  0  0  0  0  0  0
    7.0136    3.0181   -0.5825 C   0  0  0  0  0  0  0  0  0  0  0  0
    6.3609    1.8797   -0.4615 C   0  0  0  0  0  0  0  0  0  0  0  0
    6.9412    0.7979    0.2793 C   0  0  0  0  0  0  0  0  0  0  0  0
    6.3785   -0.3789    0.4629 C   0  0  0  0  0  0  0  0  0  0  0  0
    5.0438   -0.5746   -0.1535 C   0  0  2  0  0  0  0  0  0  0  0  0
    5.2119   -0.9968   -1.6083 C   0  0  0  0  0  2  0  0  0  0  0  0
    4.2985    0.7339   -0.0388 C   0  0  0  0  0  3  0  0  0  0  0  0
    2.9164    0.6522   -0.6388 C   0  0  0  0  0  3  0  0  0  0  0  0
    1.9656    0.2280    0.4627 C   0  0  0  0  0  3  0  0  0  0  0  0
    1.5901   -1.2150    0.3715 C   0  0  0  0  0  3  0  0  0  0  0  0
   -0.2021   -1.3855    0.5248 S   0  0  0  0  0  0  0  0  0  0  0  0
   -0.9901    0.2555    0.7440 C   0  0  1  0  0  0  0  0  0  0  0  0
   -0.7838    0.9870   -0.4930 N   0  0  0  0  0  0  0  0  0  0  0  0
   -2.4844    0.0419    0.8784 C   0  0  2  0  0  0  0  0  0  0  0  0
   -2.9143   -0.8173   -0.2855 C   0  0  2  0  0  0  0  0  0  0  0  0
   -2.6529   -0.2710   -1.5151 O   0  0  0  0  0  0  0  0  0  0  0  0
   -4.3675   -1.1720   -0.0918 C   0  0  1  0  0  0  0  0  0  0  0  0
   -4.8975   -2.0361   -1.2101 C   0  0  0  0  0  0  0  0  0  0  0  0
   -4.6274   -1.7797    1.2634 C   0  0  0  0  0  3  0  0  0  0  0  0
   -6.0786   -2.2103    1.2995 C   0  0  0  0  0  3  0  0  0  0  0  0
   -6.9996   -0.9934    1.1877 C   0  0  0  0  0  0  0  0  0  0  0  0
   -7.0599   -0.5047   -0.2484 C   0  0  0  0  0  0  0  0  0  0  0  0
   -6.6464   -1.1872   -1.4458 S   0  0  2  0  0  0  0  0  0  0  0  0
   -7.7363   -3.3161   -1.1998 S   0  0  0  0  0  0  0  0  0  0  0  0
   -8.3737   -3.1417   -2.8894 C   0  0  0  0  0  2  0  0  0  0  0  0
   -3.0869    1.2743    0.9156 O   0  0  0  0  0  0  0  0  0  0  0  0
   -4.4523    1.2545    1.0366 C   0  0  0  0  0  3  0  0  0  0  0  0
   -4.9429    2.3976    1.6609 O   0  0  0  0  0  0  0  0  0  0  0  0
   -6.0199    2.8784    0.9058 C   0  0  1  0  0  0  0  0  0  0  0  0
   -6.5445    4.0303    1.4999 O   0  0  0  0  0  0  0  0  0  0  0  0
   -5.6217    3.1600   -0.4891 C   0  0  0  0  0  0  0  0  0  0  0  0
   -5.0786    2.1399   -1.2445 O   0  0  0  0  0  1  0  0  0  0  0  0
   -5.7579    4.2873   -1.0117 O   0  0  0  0  0  0  0  0  0  0  0  0
    7.2991   -1.5680    1.4246 S   0  0  0  0  0  0  0  0  0  0  0  0
    7.0470   -3.1959    0.6613 C   0  0  0  0  0  3  0  0  0  0  0  0
    5.5982   -3.6408    0.7733 C   0  0  1  0  0  0  0  0  0  0  0  0
    4.7075   -2.8079   -0.1337 C   0  0  0  0  0  0  0  0  0  0  0  0
    4.3381   -1.6056    0.4699 O   0  0  0  0  0  0  0  0  0  0  0  0
    5.5676   -4.9702    0.3072 O   0  0  0  0  0  1  0  0  0  0  0  0
  1  2  2  0
  2  3  1  0
  2  4  1  0
  4  5  2  3
  5  6  1  0
  6  7  2  3
  7  8  1  0
  8  9  1  6
  8 10  1  0
 10 11  1  0
 11 12  1  0
 12 13  1  0
 13 14  1  0
 14 15  1  0
 15 16  1  6
 15 17  1  0
 17 18  1  0
 18 19  1  6
 18 20  1  0
 20 21  1  6
 20 22  1  0
 22 23  1  0
 23 24  1  0
 24 25  1  0
 25 26  1  0
 26 27  1  1
 27 28  1  0
 17 29  1  6
 29 30  1  0
 30 31  1  0
 31 32  1  0
 32 33  1  1
 32 34  1  0
 34 35  1  0
 34 36  2  0
  7 37  1  0
 37 38  1  0
 38 39  1  0
 39 40  1  0
 40 41  1  0
 39 42  1  6
 41  8  1  0
 26 21  1  0
M  RAD  8   9   3  10   2  11   2  12   2  13   2  22   2  23   2  28   3
M  CHG  3   2   1  35  -1  42  -1
M  RAD  2  30   2  38   2
M  END
>  <fragInfo>  (1) 
6 7 8 9 37 38 39 40 41 42
1 2 3
4 5
10
11
12
13
14
15 16
17
18 19
20 21 22 23 24 25 26
27 28
29
30
31
32 33
34 35 36


>  <torsionInfo>  (1) 
5 6 2 0
8 10 0 3
2 4 1 2
10 11 3 4
11 12 4 5
12 13 5 6
13 14 6 7
14 15 7 8
15 17 8 9
17 18 9 10
17 29 9 13
18 20 10 11
26 27 11 12
29 30 13 14
30 31 14 15
31 32 15 16
32 34 16 17


>  <atomInfo>  (1) 
1  0.08055844OA
2  0.24875925N 
3  -0.2412798OA
4  0.28126233C 
5  0.01330039C 
6  -0.0434178C 
7  0.01773470C 
8  0.10588469C 
9  0.00561169C 
10 0.00258783C 
11 -0.0272515C 
12 -0.0205672C 
13 0.02204097C 
14 -0.1355143SA
15 0.08032530C 
16 -0.3171120NA
17 0.11140340C 
18 0.08649846C 
19 -0.3899889OA
20 -0.0010578C 
21 -0.0110276C 
22 -0.0286077C 
23 -0.0339991C 
24 -0.0416755C 
25 -0.0164330C 
26 -0.2041017S 
27 -0.1105909SA
28 0.04100479C 
29 -0.3392289OA
30 0.21239924C 
31 -0.3128937OA
32 0.19849540C 
33 -0.3631971OA
34 0.09726437C 
35 -0.5446392OA
36 -0.5446392OA
37 -0.1240210SA
38 0.01019905C 
39 -0.0888212C 
40 0.03645796C 
41 -0.3701963OA
42 -0.8495002OA


$$$$
