
     RDKit          3D

 26 27  0  0  0  0  0  0  0  0999 V2000
    2.6986   -2.1681    0.6147 C   0  0  0  0  0  0  0  0  0  0  0  0
    3.2231   -0.8673    1.1539 C   0  0  1  0  0  0  0  0  0  0  0  0
    4.7123   -0.7131    0.9950 C   0  0  0  0  0  0  0  0  0  0  0  0
    5.0517   -0.4179   -0.4608 C   0  0  2  0  0  0  0  0  0  0  0  0
    6.3846   -0.0053   -0.5658 O   0  0  0  0  0  0  0  0  0  0  0  0
    4.1856    0.6993   -0.9849 C   0  0  2  0  0  0  0  0  0  0  0  0
    4.8944    1.6126   -1.7473 O   0  0  0  0  0  0  0  0  0  0  0  0
    3.4806    1.3461    0.1935 C   0  0  1  0  0  0  0  0  0  0  0  0
    2.8767    2.5443   -0.1403 O   0  0  0  0  0  0  0  0  0  0  0  0
    2.4510    0.3324    0.6801 C   0  0  1  0  0  0  0  0  0  0  0  0
    1.5808    0.0551   -0.4325 N   0  0  0  0  0  0  0  0  0  0  0  0
    0.4910   -0.8270   -0.1139 C   0  0  0  0  0  3  0  0  0  0  0  0
   -0.4995   -0.2409    0.8522 C   0  0  0  0  0  0  0  0  0  0  0  0
   -1.6363    0.4800    0.1844 C   0  0  2  0  0  0  0  0  0  0  0  0
   -1.1795    1.4970   -0.6649 O   0  0  0  0  0  0  0  0  0  0  0  0
   -2.4675    1.1311    1.2558 C   0  0  0  0  0  3  0  0  0  0  0  0
   -3.4674    0.3165    1.7550 O   0  0  0  0  0  0  0  0  0  0  0  0
   -3.3322   -0.9413    1.4391 O   0  0  0  0  0  0  0  0  0  0  0  0
   -4.3964   -1.3919    0.7894 O   0  0  0  0  0  0  0  0  0  0  0  0
   -4.9612   -0.3626    0.0216 C   0  0  1  0  0  0  0  0  0  0  0  0
   -5.4731    0.6191    0.8788 O   0  0  0  0  0  0  0  0  0  0  0  0
   -3.8609    0.2596   -0.7915 C   0  0  2  0  0  0  0  0  0  0  0  0
   -4.2293    0.4802   -2.2315 C   0  0  0  0  0  0  0  0  0  0  0  0
   -2.5307   -0.4164   -0.6189 C   0  0  1  0  0  0  0  0  0  0  0  0
   -1.9688   -0.8483   -1.8049 O   0  0  0  0  0  0  0  0  0  0  0  0
   -2.0275   -2.1731   -1.7911 O   0  0  0  0  0  0  0  0  0  0  0  0
  2  1  1  6
  2  3  1  0
  3  4  1  0
  4  5  1  1
  4  6  1  0
  6  7  1  1
  6  8  1  0
  8  9  1  6
  8 10  1  0
 10 11  1  6
 11 12  1  0
 12 13  1  0
 13 14  1  0
 14 15  1  6
 14 16  1  0
 16 17  1  0
 17 18  1  0
 18 19  1  0
 19 20  1  0
 20 21  1  1
 20 22  1  0
 22 23  1  6
 22 24  1  0
 24 25  1  6
 25 26  1  0
 10  2  1  0
 24 14  1  0
M  RAD  2  12   2  16   2
M  END
>  <fragInfo>  (1) 
14 15 16 17 18 19 20 21 22 23 24
1 2 3 4 5 6 7 8 9 10
11
12
13
25 26


>  <torsionInfo>  (1) 
13 14 4 0
24 25 0 5
10 11 1 2
11 12 2 3
12 13 3 4


>  <atomInfo>  (1) 
1  -0.0608233C 
2  -0.0236285C 
3  -0.0201755C 
4  0.08280077C 
5  -0.3903155OA
6  0.10722522C 
7  -0.3876533OA
8  0.09792914C 
9  -0.3886791OA
10 0.03839103C 
11 -0.3066465NA
12 0.02551651C 
13 -0.0015896C 
14 0.12804265C 
15 -0.3839891OA
16 0.15965414C 
17 -0.1965180OA
18 -0.0648701OA
19 -0.1737727OA
20 0.19668583C 
21 -0.3652299OA
22 0.04250514C 
23 -0.0547839C 
24 0.13159257C 
25 -0.2324420OA
26 -0.2514153OA


$$$$
