
     RDKit          3D

 69 69  0  0  0  0  0  0  0  0999 V2000
   -4.0352    0.4119    0.8678 C   0  0  0  0  0  0  0  0  0  0  0  0
   -4.4132    1.5246    1.4433 C   0  0  0  0  0  0  0  0  0  0  0  0
   -5.6759    1.5086    2.2349 C   0  0  0  0  0  0  0  0  0  0  0  0
   -3.6748    2.8092    1.3664 C   0  0  0  0  0  0  0  0  0  0  0  0
   -4.4458    3.9132    0.7241 C   0  0  0  0  0  0  0  0  0  0  0  0
   -5.9454    3.7465    0.9111 C   0  0  0  0  0  0  0  0  0  0  0  0
   -6.6766    4.7351    0.0209 C   0  0  1  0  0  0  0  0  0  0  0  0
   -5.9123    4.9874   -1.2592 C   0  0  0  0  0  0  0  0  0  0  0  0
   -8.0538    4.1730   -0.2550 C   0  0  2  0  0  0  0  0  0  0  0  0
   -8.5911    3.4323    0.9644 C   0  0  0  0  0  2  0  0  0  0  0  0
   -8.0452    3.2233   -1.4336 C   0  0  0  0  0  3  0  0  0  0  0  0
   -7.4588    1.8768   -1.0732 C   0  0  0  0  0  3  0  0  0  0  0  0
   -8.5105    0.8590   -0.7518 C   0  0  0  0  0  0  0  0  0  0  0  0
   -7.9067   -0.5211   -0.9845 C   0  0  2  0  0  0  0  0  0  0  0  0
   -7.4117   -1.0866    0.3525 C   0  0  0  0  0  0  0  0  0  0  0  0
   -6.8295   -2.4522    0.0738 C   0  0  0  0  0  3  0  0  0  0  0  0
   -7.9799   -3.3011   -0.4838 C   0  0  0  0  0  3  0  0  0  0  0  0
   -9.2037   -2.9000    0.3821 C   0  0  2  0  0  0  0  0  0  0  0  0
   -8.8113   -3.2572    1.8410 C   0  0  0  0  0  0  0  0  0  0  0  0
  -10.3654   -3.7403   -0.0014 C   0  0  0  0  0  0  0  0  0  0  0  0
  -11.6132   -3.4814    0.6584 C   0  0  0  0  0  0  0  0  0  0  0  0
  -11.8464   -3.5475    2.0872 C   0  0  0  0  0  3  0  0  0  0  0  0
  -11.1758   -2.4461    2.8507 C   0  0  0  0  0  3  0  0  0  0  0  0
  -11.9290   -1.1389    2.7313 C   0  0  0  0  0  0  0  0  0  0  0  0
   -6.6508   -0.4101   -1.8413 C   0  0  2  0  0  0  0  0  0  0  0  0
   -6.3363   -1.6456   -2.6089 C   0  0  0  0  0  0  0  0  0  0  0  0
   -7.4615   -1.9744   -3.5495 C   0  0  0  0  0  0  0  0  0  0  0  0
   -7.7515   -0.9466   -4.5816 C   0  0  0  0  0  0  0  0  0  0  0  0
   -8.1361    0.3993   -4.0580 C   0  0  0  0  0  2  0  0  0  0  0  0
   -5.4857    0.0375   -0.9670 C   0  0  0  0  0  0  0  0  0  0  0  0
   -4.4368    0.6192   -1.8538 C   0  0  0  0  0  0  0  0  0  0  0  0
   -3.0301    0.3542   -1.4239 C   0  0  2  0  0  0  0  0  0  0  0  0
   -2.3838   -0.7711   -2.2016 C   0  0  0  0  0  0  0  0  0  0  0  0
   -2.8229    0.2330    0.0490 C   0  0  2  0  0  0  0  0  0  0  0  0
   -2.3186   -1.1922    0.3129 C   0  0  0  0  0  2  0  0  0  0  0  0
   -1.7068    1.1702    0.4503 C   0  0  0  0  0  0  0  0  0  0  0  0
   -1.2885    0.9665    1.8875 C   0  0  0  0  0  0  0  0  0  0  0  0
   -0.7885   -0.4347    2.1512 C   0  0  0  0  0  0  0  0  0  0  0  0
    0.4115   -0.6729    1.2585 C   0  0  0  0  0  3  0  0  0  0  0  0
    1.5185    0.3203    1.5518 C   0  0  1  0  0  0  0  0  0  0  0  0
    1.0529    1.7437    1.3231 C   0  0  0  0  0  2  0  0  0  0  0  0
    2.0603    0.1375    2.9557 C   0  0  0  0  0  0  0  0  0  0  0  0
    3.1529    1.1602    3.1738 C   0  0  1  0  0  0  0  0  0  0  0  0
    3.7415    1.0339    4.5675 C   0  0  0  0  0  2  0  0  0  0  0  0
    4.2697    1.0663    2.1864 C   0  0  0  0  0  0  0  0  0  0  0  0
    4.9860   -0.2422    2.1767 C   0  0  1  0  0  0  0  0  0  0  0  0
    4.1336   -1.4305    1.8521 C   0  0  0  0  0  0  0  0  0  0  0  0
    6.2146   -0.1463    1.3095 C   0  0  0  0  0  0  0  0  0  0  0  0
    7.1673    0.9129    1.8207 C   0  0  0  0  0  2  0  0  0  0  0  0
    5.8172    0.2631   -0.0967 C   0  0  0  0  0  2  0  0  0  0  0  0
    6.9224   -1.4701    1.3301 C   0  0  0  0  0  0  0  0  0  0  0  0
    8.1572   -1.3704    0.4599 C   0  0  0  0  0  0  0  0  0  0  0  0
    9.0971   -0.3142    0.9554 C   0  0  0  0  0  3  0  0  0  0  0  0
   10.3139   -0.2538    0.0464 C   0  0  0  0  0  0  0  0  0  0  0  0
    9.7299   -0.1771   -1.3819 C   0  0  1  0  0  0  0  0  0  0  0  0
   10.9560   -0.0048   -2.3422 C   0  0  0  0  0  0  0  0  0  0  0  0
   11.6253    1.2804   -1.9058 C   0  0  0  0  0  3  0  0  0  0  0  0
   10.6321    2.4222   -2.0480 C   0  0  0  0  0  0  0  0  0  0  0  0
   11.2420    3.7352   -1.6256 C   0  0  0  0  0  0  0  0  0  0  0  0
   12.4549    4.0133   -2.5150 C   0  0  0  0  0  3  0  0  0  0  0  0
   13.0994    5.3255   -2.1234 C   0  0  0  0  0  2  0  0  0  0  0  0
    9.2313   -1.6298   -1.7135 C   0  0  0  0  0  0  0  0  0  0  0  0
   10.3807   -2.5700   -1.7564 C   0  0  1  0  0  0  0  0  0  0  0  0
    9.7546   -3.9532   -2.0851 C   0  0  0  0  0  2  0  0  0  0  0  0
   11.2605   -2.2941   -2.9897 C   0  0  0  0  0  0  0  0  0  0  0  0
   11.2553   -2.7625   -0.6136 C   0  0  1  0  0  0  0  0  0  0  0  0
   10.6870   -3.2963    0.6527 C   0  0  0  0  0  2  0  0  0  0  0  0
   12.4668   -3.5823   -0.9858 C   0  0  0  0  0  0  0  0  0  0  0  0
   13.3166   -2.9779   -2.0523 C   0  0  0  0  0  2  0  0  0  0  0  0
  1  2  2  3
  2  3  1  0
  2  4  1  0
  4  5  1  0
  5  6  1  0
  6  7  1  0
  7  8  1  6
  7  9  1  0
  9 10  1  1
  9 11  1  0
 11 12  1  0
 12 13  1  0
 13 14  1  0
 14 15  1  1
 15 16  1  0
 16 17  1  0
 17 18  1  0
 18 19  1  1
 18 20  1  0
 20 21  1  0
 21 22  1  0
 22 23  1  0
 23 24  1  0
 14 25  1  0
 25 26  1  1
 26 27  1  0
 27 28  1  0
 28 29  1  0
 25 30  1  0
 30 31  1  0
 31 32  1  0
 32 33  1  6
 32 34  1  0
 34 35  1  6
 34 36  1  0
 36 37  1  0
 37 38  1  0
 38 39  1  0
 39 40  1  0
 40 41  1  1
 40 42  1  0
 42 43  1  0
 43 44  1  1
 43 45  1  0
 45 46  1  0
 46 47  1  6
 46 48  1  0
 48 49  1  0
 48 50  1  0
 48 51  1  0
 51 52  1  0
 52 53  1  0
 53 54  1  0
 55 54  1  1
 55 56  1  0
 56 57  1  0
 57 58  1  0
 58 59  1  0
 59 60  1  0
 60 61  1  0
 55 62  1  0
 62 63  1  0
 63 64  1  6
 63 65  1  0
 63 66  1  0
 66 67  1  1
 66 68  1  0
 68 69  1  0
 34  1  1  0
M  RAD  8  10   3  11   2  12   2  16   2  17   2  22   2  23   2  29   3
M  RAD  8  35   3  39   2  41   3  44   3  49   3  50   3  53   2  57   2
M  RAD  5  60   2  61   3  64   3  67   3  69   3
M  END
>  <fragInfo>  (1) 
1 2 3 4 5 6 7 8 9 10 11 12 13 14 25 30 31 32 33 34 35
15
16
17
18 19
20
21
22
23 24
26
27
28 29
36
37
38
39
40 41
42
43 44
45
46 47
48 49 50
51
52
53
54
55
56
57
58
59
60 61
62
63 64 65
66 67
68 69


>  <torsionInfo>  (1) 
14 15 0 1
25 26 0 9
34 36 0 12
15 16 1 2
16 17 2 3
17 18 3 4
18 20 4 5
20 21 5 6
21 22 6 7
22 23 7 8
26 27 9 10
27 28 10 11
36 37 12 13
37 38 13 14
38 39 14 15
39 40 15 16
40 42 16 17
42 43 17 18
43 45 18 19
45 46 19 20
46 48 20 21
48 51 21 22
51 52 22 23
52 53 23 24
53 54 24 25
54 55 25 26
55 56 26 27
55 62 26 32
56 57 27 28
57 58 28 29
58 59 29 30
59 60 30 31
62 63 32 33
63 66 33 34
66 68 34 35


>  <atomInfo>  (1) 
1  -0.0788155C 
2  -0.0767347C 
3  -0.0439139C 
4  -0.0322770C 
5  -0.0493041C 
6  -0.0501209C 
7  -0.0408528C 
8  -0.0622232C 
9  -0.0320311C 
10 -0.0312191C 
11 -0.0315147C 
12 -0.0346017C 
13 -0.0467538C 
14 -0.0380157C 
15 -0.0467543C 
16 -0.0346336C 
17 -0.0323481C 
18 -0.0408646C 
19 -0.0622234C 
20 -0.0501414C 
21 -0.0496436C 
22 -0.0354658C 
23 -0.0383051C 
24 -0.0619687C 
25 -0.0385528C 
26 -0.0501720C 
27 -0.0527474C 
28 -0.0498870C 
29 -0.0351921C 
30 -0.0498972C 
31 -0.0495973C 
32 -0.0348156C 
33 -0.0616676C 
34 -0.0055671C 
35 -0.0240368C 
36 -0.0435430C 
37 -0.0521732C 
38 -0.0498651C 
39 -0.0351702C 
40 -0.0346221C 
41 -0.0314941C 
42 -0.0467331C 
43 -0.0374557C 
44 -0.0317791C 
45 -0.0470063C 
46 -0.0377499C 
47 -0.0619468C 
48 -0.0203188C 
49 -0.0278304C 
50 -0.0278304C 
51 -0.0464927C 
52 -0.0496126C 
53 -0.0382892C 
54 -0.0472943C 
55 -0.0403425C 
56 -0.0472945C 
57 -0.0382998C 
58 -0.0498879C 
59 -0.0496121C 
60 -0.0348749C 
61 -0.0315045C 
62 -0.0444214C 
63 -0.0257729C 
64 -0.0283919C 
65 -0.0590701C 
66 -0.0320186C 
67 -0.0312178C 
68 -0.0462225C 
69 -0.0348761C 


$$$$
