
     RDKit          3D

 25 25  0  0  0  0  0  0  0  0999 V2000
    5.6275    0.7034    0.4884 C   0  0  0  0  0  0  0  0  0  0  0  0
    5.7909    0.1449   -0.8850 C   0  0  0  0  0  0  0  0  0  0  0  0
    6.8689   -0.9044   -0.9824 C   0  0  0  0  0  0  0  0  0  0  0  0
    4.5356   -0.2722   -1.5822 C   0  0  0  0  0  0  0  0  0  0  0  0
    3.7368   -1.3234   -0.8825 C   0  0  0  0  0  0  0  0  0  0  0  0
    3.1966   -0.8379    0.4143 C   0  0  0  0  0  0  0  0  0  0  0  0
    2.2046    0.2563    0.3544 C   0  0  1  0  0  0  0  0  0  0  0  0
    2.5785    1.5377   -0.2673 C   0  0  0  0  0  0  0  0  0  0  0  0
    0.8378   -0.1739   -0.1096 C   0  0  1  0  0  0  0  0  0  0  0  0
    0.2216   -1.2085    0.7734 C   0  0  0  0  0  0  0  0  0  0  0  0
   -0.8551   -1.9439    0.0425 C   0  0  0  0  0  0  0  0  0  0  0  0
   -2.0963   -1.9519    0.9207 C   0  0  0  0  0  3  0  0  0  0  0  0
   -3.2375   -2.6066    0.1798 C   0  0  0  0  0  3  0  0  0  0  0  0
   -3.7544   -3.8148    0.9055 C   0  0  0  0  0  2  0  0  0  0  0  0
   -4.3646   -1.6752   -0.1225 C   0  0  0  0  0  0  0  0  0  0  0  0
   -4.3877   -0.4538    0.7383 C   0  0  1  0  0  0  0  0  0  0  0  0
   -4.9647   -0.6832    2.0406 N   0  0  0  0  0  1  0  0  0  0  0  0
   -3.0905    0.2915    0.7803 C   0  0  0  0  0  0  0  0  0  0  0  0
   -3.3483    1.7155    0.3601 C   0  0  0  0  0  0  0  0  0  0  0  0
   -2.1733    2.3270   -0.1830 N   0  0  0  0  0  3  0  0  0  0  0  0
   -2.4127    3.1895   -1.1837 O   0  0  0  0  0  0  0  0  0  0  0  0
   -1.2687    2.8436    0.8162 C   0  0  0  0  0  3  0  0  0  0  0  0
   -0.1225    1.8708    0.9904 C   0  0  0  0  0  0  0  0  0  0  0  0
   -0.0277    1.0378   -0.2691 C   0  0  1  0  0  0  0  0  0  0  0  0
    0.5051    1.9314   -1.3676 C   0  0  0  0  0  2  0  0  0  0  0  0
  1  2  1  0
  2  3  1  0
  2  4  1  0
  4  5  1  0
  5  6  1  0
  6  7  1  0
  7  8  1  6
  7  9  1  0
  9 10  1  1
 10 11  1  0
 11 12  1  0
 12 13  1  0
 13 14  1  0
 13 15  1  0
 15 16  1  0
 16 17  1  1
 16 18  1  0
 18 19  1  0
 19 20  1  0
 20 21  1  0
 20 22  1  0
 22 23  1  0
 23 24  1  0
 24 25  1  6
 24  9  1  0
M  CHG  2  17   1  20   1
M  RAD  7  12   2  13   2  14   3  17   2  20   2  22   2  25   3
M  END
>  <fragInfo>  (1) 
9 10 11 12 13 14 15 16 17 18 19 20 21 22 23 24 25
1 2 3
4
5
6
7 8


>  <torsionInfo>  (1) 
7 9 5 0
2 4 1 2
4 5 2 3
5 6 3 4
6 7 4 5


>  <atomInfo>  (1) 
1  -0.0627736C 
2  -0.0471324C 
3  -0.0627736C 
4  -0.0509643C 
5  -0.0527983C 
6  -0.0504265C 
7  -0.0411556C 
8  -0.0622342C 
9  -0.0354681C 
10 -0.0496182C 
11 -0.0493108C 
12 -0.0312416C 
13 -0.0103755C 
14 -0.0272642C 
15 0.02546787C 
16 0.28279666C 
17 0.42184769N 
18 0.07594504C 
19 0.16633967C 
20 0.00051596N 
21 -0.1620407OA
22 0.22833363C 
23 0.01742112C 
24 -0.0286939C 
25 -0.0312564C 


$$$$
