
     RDKit          3D

 27 26  0  0  0  0  0  0  0  0999 V2000
   -7.4077    1.5906    1.6325 C   0  0  0  0  0  0  0  0  0  0  0  0
   -8.1990    0.8149    0.6330 C   0  0  0  0  0  0  0  0  0  0  0  0
   -9.3493    0.0551    1.2374 C   0  0  0  0  0  0  0  0  0  0  0  0
   -7.3377   -0.0524   -0.2590 C   0  0  0  0  0  0  0  0  0  0  0  0
   -6.3885    0.8765   -0.9906 C   0  0  0  0  0  0  0  0  0  0  0  0
   -5.4640    0.1533   -1.9205 C   0  0  0  0  0  0  0  0  0  0  0  0
   -4.6118   -0.8364   -1.1938 C   0  0  1  0  0  0  0  0  0  0  0  0
   -3.6888   -1.5576   -2.1265 C   0  0  0  0  0  0  0  0  0  0  0  0
   -3.9017   -0.2373   -0.0028 C   0  0  0  0  0  3  0  0  0  0  0  0
   -2.9913    0.8912   -0.3772 C   0  0  0  0  0  0  0  0  0  0  0  0
   -1.9022    0.4933   -1.3368 C   0  0  0  0  0  0  0  0  0  0  0  0
   -1.0260   -0.5835   -0.7522 C   0  0  2  0  0  0  0  0  0  0  0  0
   -0.3862   -0.0941    0.5074 C   0  0  0  0  0  0  0  0  0  0  0  0
   -0.0439   -1.0196   -1.7980 C   0  0  0  0  0  3  0  0  0  0  0  0
    0.8729   -2.1053   -1.2760 C   0  0  0  0  0  0  0  0  0  0  0  0
    1.6264   -1.5688   -0.0994 C   0  0  0  0  0  0  0  0  0  0  0  0
    2.6193   -0.0898   -0.6704 Si  0  0  0  0  0  4  0  0  0  0  0  0
    3.2345    1.1614    0.5600 C   0  0  0  0  0  0  0  0  0  0  0  0
    4.7428    1.1204    0.6435 C   0  0  0  0  0  0  0  0  0  0  0  0
    5.1483   -0.2697    1.0810 C   0  0  2  0  0  0  0  0  0  0  0  0
    4.6399   -0.6300    2.3060 O   0  0  0  0  0  0  0  0  0  0  0  0
    6.6520   -0.4664    0.9986 C   0  0  0  0  0  0  0  0  0  0  0  0
    7.1232   -0.2674   -0.4168 C   0  0  2  0  0  0  0  0  0  0  0  0
    8.6245   -0.4705   -0.4632 C   0  0  0  0  0  0  0  0  0  0  0  0
    6.7920    1.1552   -0.8491 C   0  0  0  0  0  0  0  0  0  0  0  0
    7.4680    2.0127    0.0365 O   0  0  0  0  0  0  0  0  0  0  0  0
    3.1543   -0.0759   -2.0892 O   0  0  0  0  0  0  0  0  0  0  0  0
  1  2  1  0
  2  3  1  0
  2  4  1  0
  4  5  1  0
  5  6  1  0
  6  7  1  0
  7  8  1  6
  7  9  1  0
  9 10  1  0
 10 11  1  0
 11 12  1  0
 12 13  1  1
 12 14  1  0
 14 15  1  0
 15 16  1  0
 16 17  1  0
 17 18  1  0
 18 19  1  0
 19 20  1  0
 20 21  1  1
 20 22  1  0
 22 23  1  0
 23 24  1  1
 23 25  1  0
 25 26  1  0
 17 27  2  0
M  RAD  2   9   2  14   2
M  END
>  <fragInfo>  (1) 
1 2 3
4
5
6
7 8
9
10
11
12 13
14
15
16
17 27
18
19
20 21
22
23 24
25 26


>  <torsionInfo>  (1) 
2 4 0 1
4 5 1 2
5 6 2 3
6 7 3 4
7 9 4 5
9 10 5 6
10 11 6 7
11 12 7 8
12 14 8 9
14 15 9 10
15 16 10 11
16 17 11 12
17 18 12 13
18 19 13 14
19 20 14 15
20 22 15 16
22 23 16 17
23 25 17 18


>  <atomInfo>  (1) 
1  -0.0627736C 
2  -0.0471324C 
3  -0.0627736C 
4  -0.0509643C 
5  -0.0527983C 
6  -0.0504266C 
7  -0.0411603C 
8  -0.0622342C 
9  -0.0357403C 
10 -0.0496542C 
11 -0.0501522C 
12 -0.0411491C 
13 -0.0622341C 
14 -0.0356399C 
15 -0.0464107C 
16 -0.0080369C 
17 0.27619917Si
18 -0.0058687C 
19 -0.0234916C 
20 0.05443366C 
21 -0.3931179OA
22 -0.0222371C 
23 -0.0185052C 
24 -0.0602212C 
25 0.04570829C 
26 -0.3960972OA
27 -0.3884564OA


$$$$
