
     RDKit          3D

 80 85  0  0  0  0  0  0  0  0999 V2000
    2.0726    0.4943    0.2517 C   0  0  2  0  0  0  0  0  0  0  0  0
    1.7307    0.6568    1.6616 C   0  0  0  0  0  3  0  0  0  0  0  0
    0.9677   -0.4308    2.3113 C   0  0  0  0  0  0  0  0  0  0  0  0
   -0.5222   -0.1045    2.3148 C   0  0  0  0  0  0  0  0  0  0  0  0
   -0.6598    1.2348    2.9328 C   0  0  0  0  0  0  0  0  0  0  0  0
   -1.7600    1.6776    3.1654 O   0  0  0  0  0  0  0  0  0  0  0  0
    0.5277    2.0520    3.2758 C   0  0  0  0  0  0  0  0  0  0  0  0
    1.5855    2.0062    2.2062 C   0  0  2  0  0  0  0  0  0  0  0  0
    1.3346    3.1028    1.2361 C   0  0  0  0  0  0  0  0  0  0  0  0
    2.1899    2.9838   -0.0045 C   0  0  0  0  0  0  0  0  0  0  0  0
    1.8680    1.6533   -0.6424 C   0  0  2  0  0  0  0  0  0  0  0  0
    0.5262    1.6685   -1.3401 C   0  0  0  0  0  0  0  0  0  0  0  0
    0.1474    3.0508   -1.8166 C   0  0  0  0  0  0  0  0  0  0  0  0
   -1.1639    3.5248   -1.2455 C   0  0  0  0  0  3  0  0  0  0  0  0
   -1.0937    4.8323   -0.8673 F   0  0  0  0  0  0  0  0  0  0  0  0
   -2.3404    3.1895   -2.1014 C   0  0  0  0  0  3  0  0  0  0  0  0
   -3.5596    3.0465   -1.2189 C   0  0  0  0  0  0  0  0  0  0  0  0
   -3.8679    4.3026   -0.4642 C   0  0  0  0  0  0  0  0  0  0  0  0
   -4.1364    5.4603   -1.4027 C   0  0  0  0  0  0  0  0  0  0  0  0
   -4.4182    6.6059   -0.6551 O   0  0  0  0  0  0  0  0  0  0  0  0
   -3.5339    7.1515    0.2404 C   0  0  0  0  0  0  0  0  0  0  0  0
   -3.7850    7.8200    1.2955 C   0  0  0  0  0  0  0  0  0  0  0  0
   -4.9932    8.2556    1.9487 C   0  0  0  0  0  0  0  0  0  0  0  0
   -6.1640    7.8997    1.3360 O   0  0  0  0  0  0  0  0  0  0  0  0
   -6.2609    8.4402    0.0592 C   0  0  0  0  0  3  0  0  0  0  0  0
   -5.9670    9.9193    0.0554 C   0  0  0  0  0  2  0  0  0  0  0  0
   -4.8038   10.1736   -0.9099 C   0  0  0  0  0  0  0  0  0  0  0  0
   -2.0982    1.8494   -2.7620 C   0  0  0  0  0  0  0  0  0  0  0  0
   -2.5297    0.7735   -1.7871 C   0  0  0  0  0  0  0  0  0  0  0  0
   -1.9582   -0.5699   -2.1335 C   0  0  0  0  0  3  0  0  0  0  0  0
   -2.5047   -1.5870   -1.1665 C   0  0  0  0  0  3  0  0  0  0  0  0
   -3.6497   -0.9877   -0.3396 C   0  0  2  0  0  0  0  0  0  0  0  0
   -3.4375   -1.5305    1.0796 C   0  0  0  0  0  0  0  0  0  0  0  0
   -3.5894   -3.0161    0.8637 C   0  0  0  0  0  0  0  0  0  0  0  0
   -4.4499   -3.1929   -0.3688 C   0  0  0  0  0  0  0  0  0  0  0  0
   -4.8913   -1.7936   -0.7427 C   0  0  1  0  0  0  0  0  0  0  0  0
   -6.0990   -1.3588    0.0566 C   0  0  1  0  0  0  0  0  0  0  0  0
   -6.7407   -0.1880   -0.6593 C   0  0  0  0  0  0  0  0  0  0  0  0
   -7.1272   -2.4563    0.1699 C   0  0  1  0  0  0  0  0  0  0  0  0
   -7.9130   -2.6780   -1.0760 C   0  0  0  0  0  0  0  0  0  0  0  0
   -9.0937   -3.3379   -0.8383 O   0  0  0  0  0  0  0  0  0  0  0  0
   -9.9330   -2.6890    0.0578 C   0  0  0  0  0  3  0  0  0  0  0  0
   -9.7606   -3.2086    1.4680 C   0  0  0  0  0  2  0  0  0  0  0  0
   -8.8526   -4.4443    1.4809 C   0  0  0  0  0  3  0  0  0  0  0  0
   -7.5097   -3.9779    2.0422 C   0  0  0  0  0  3  0  0  0  0  0  0
   -6.6227   -3.6925    0.8265 C   0  0  1  0  0  0  0  0  0  0  0  0
   -6.6444   -4.8199    0.0428 O   0  0  0  0  0  0  0  0  0  0  0  0
   -6.5609   -5.9353    0.8761 C   0  0  0  0  0  2  0  0  0  0  0  0
   -5.0931   -6.1506    1.1799 C   0  0  0  0  0  0  0  0  0  0  0  0
   -4.4238   -7.0909    0.2350 C   0  0  0  0  0  0  0  0  0  0  0  0
   -3.5064   -6.4374   -0.7466 C   0  0  0  0  0  3  0  0  0  0  0  0
   -2.2658   -6.1193   -0.2353 O   0  0  0  0  0  0  0  0  0  0  0  0
   -1.6645   -5.1047   -1.0064 C   0  0  0  0  0  0  0  0  0  0  0  0
   -0.2243   -4.9141   -0.6463 C   0  0  2  0  0  0  0  0  0  0  0  0
    0.1795   -5.8823    0.4235 C   0  0  0  0  0  0  0  0  0  0  0  0
   -0.3953   -5.2295    1.6796 C   0  0  0  0  0  0  0  0  0  0  0  0
   -0.3142   -3.7450    1.4146 C   0  0  0  0  0  0  0  0  0  0  0  0
    0.0211   -3.5724   -0.0421 C   0  0  1  0  0  0  0  0  0  0  0  0
    1.3021   -3.0884   -0.2444 O   0  0  0  0  0  0  0  0  0  0  0  0
    1.4685   -1.9308    0.5101 C   0  0  0  0  0  0  0  0  0  0  0  0
    1.5961   -0.7588   -0.4067 C   0  0  0  0  0  3  0  0  0  0  0  0
    2.4615   -1.1148   -1.4533 O   0  0  0  0  0  0  0  0  0  0  0  0
    3.7342   -1.3500   -0.9358 C   0  0  0  0  0  0  0  0  0  0  0  0
    4.3134   -0.1552   -0.2480 C   0  0  0  0  0  3  0  0  0  0  0  0
    5.0823    0.6627   -1.2554 C   0  0  0  0  0  3  0  0  0  0  0  0
    6.3850   -0.0077   -1.5639 C   0  0  0  0  0  0  0  0  0  0  0  0
    6.1845   -1.3953   -2.1394 C   0  0  0  0  0  3  0  0  0  0  0  0
    7.4813   -2.0710   -2.4500 C   0  0  0  0  0  0  0  0  0  0  0  0
    8.3601   -2.2425   -1.2416 C   0  0  0  0  0  3  0  0  0  0  0  0
    8.7274   -0.9299   -0.5906 C   0  0  0  0  0  0  0  0  0  0  0  0
    9.6109   -1.2700    0.6065 C   0  0  0  0  0  3  0  0  0  0  0  0
   10.0395   -0.0005    1.3387 C   0  0  0  0  0  3  0  0  0  0  0  0
   11.4984    0.2426    0.9888 C   0  0  0  0  0  3  0  0  0  0  0  0
   12.1664   -1.1151    0.8947 C   0  0  0  0  0  0  0  0  0  0  0  0
   13.6349   -0.9661    0.5469 C   0  0  0  0  0  3  0  0  0  0  0  0
   13.8392   -0.2734   -0.7664 C   0  0  0  0  0  3  0  0  0  0  0  0
   13.5252    1.0735   -0.6024 O   0  0  0  0  0  0  0  0  0  0  0  0
   14.7009    1.8148   -0.4654 C   0  0  0  0  0  3  0  0  0  0  0  0
   14.3951    3.0905    0.2679 C   0  0  0  0  0  3  0  0  0  0  0  0
   15.2255    4.2058   -0.3493 C   0  0  0  0  0  0  0  0  0  0  0  0
  1  2  1  0
  2  3  1  0
  3  4  1  0
  4  5  1  0
  5  6  2  0
  5  7  1  0
  8  7  1  1
  8  9  1  0
  9 10  1  0
 11 10  1  1
 11 12  1  0
 12 13  1  0
 13 14  1  0
 14 15  1  0
 14 16  1  0
 16 17  1  0
 17 18  1  0
 18 19  1  0
 19 20  1  0
 20 21  1  0
 21 22  2  3
 22 23  1  0
 23 24  1  0
 24 25  1  0
 25 26  1  0
 26 27  1  0
 16 28  1  0
 28 29  1  0
 29 30  1  0
 30 31  1  0
 32 31  1  6
 32 33  1  0
 33 34  1  0
 34 35  1  0
 36 35  1  1
 36 37  1  0
 37 38  1  6
 37 39  1  0
 39 40  1  6
 40 41  1  0
 41 42  1  0
 42 43  1  0
 43 44  1  0
 44 45  1  0
 46 45  1  1
 46 47  1  0
 47 48  1  0
 48 49  1  0
 49 50  1  0
 50 51  1  0
 51 52  1  0
 52 53  1  0
 54 53  1  1
 54 55  1  0
 55 56  1  0
 56 57  1  0
 58 57  1  1
 58 59  1  0
 59 60  1  0
 60 61  1  0
 61 62  1  0
 62 63  1  0
 63 64  1  0
 64 65  1  0
 65 66  1  0
 66 67  1  0
 67 68  1  0
 68 69  1  0
 69 70  1  0
 70 71  1  0
 71 72  1  0
 72 73  1  0
 73 74  1  0
 74 75  1  0
 75 76  1  0
 76 77  1  0
 77 78  1  0
 78 79  1  0
 79 80  1  0
 11  1  1  0
  1 61  1  6
  8  2  1  0
 36 32  1  0
 46 39  1  0
 58 54  1  0
M  RAD  8   2   2  14   2  16   2  25   2  26   3  30   2  31   2  42   2
M  RAD  8  43   3  44   2  45   2  48   3  51   2  61   2  64   2  65   2
M  RAD  8  67   2  69   2  71   2  72   2  73   2  75   2  76   2  78   2
M  RAD  1  79   2
M  END
>  <fragInfo>  (1) 
1 2 3 4 5 6 7 8 9 10 11 12 13 14 15 16 28 29 30 31 32 33 34 35 36 37 38 39 40 41 42 43 44 45 46 47 48 49 50 51 52 53 54 55 56 57 58 59 60 61
17
18
19
20
21 22
23
24
25
26 27
62
63
64
65
66
67
68
69
70
71
72
73
74
75
76
77
78
79 80


>  <torsionInfo>  (1) 
16 17 0 1
61 62 0 10
17 18 1 2
18 19 2 3
19 20 3 4
20 21 4 5
22 23 5 6
23 24 6 7
24 25 7 8
25 26 8 9
62 63 10 11
63 64 11 12
64 65 12 13
65 66 13 14
66 67 14 15
67 68 15 16
68 69 16 17
69 70 17 18
70 71 18 19
71 72 19 20
72 73 20 21
73 74 21 22
74 75 22 23
75 76 23 24
76 77 24 25
77 78 25 26
78 79 26 27


>  <atomInfo>  (1) 
1  0.00246692C 
2  -0.0137018C 
3  -0.0394476C 
4  0.00665380C 
5  0.13273099C 
6  -0.2997056OA
7  0.00947290C 
8  -0.0278762C 
9  -0.0491831C 
10 -0.0497512C 
11 -0.0349338C 
12 -0.0468611C 
13 -0.0147127C 
14 0.15111928C 
15 -0.2396821F 
16 0.01659564C 
17 -0.0405129C 
18 -0.0181120C 
19 0.08729312C 
20 -0.5014441OA
21 0.08114121C 
22 -0.0242571C 
23 0.06846552C 
24 -0.3706969OA
25 0.09126825C 
26 0.01351603C 
27 -0.0557541C 
28 -0.0434639C 
29 -0.0492167C 
30 -0.0348733C 
31 -0.0318006C 
32 -0.0349140C 
33 -0.0498763C 
34 -0.0527368C 
35 -0.0498938C 
36 -0.0352733C 
37 -0.0336183C 
38 -0.0617865C 
39 0.01171432C 
40 0.05267836C 
41 -0.3744521OA
42 0.09145824C 
43 0.02096475C 
44 -0.0222375C 
45 -0.0051526C 
46 0.06728959C 
47 -0.3647679OA
48 0.13223254C 
49 -0.0152932C 
50 -0.0211908C 
51 0.08374730C 
52 -0.3751302OA
53 0.05236819C 
54 0.00854659C 
55 -0.0456592C 
56 -0.0503808C 
57 -0.0263541C 
58 0.06263143C 
59 -0.3747120OA
60 0.07932688C 
61 0.12638838C 
62 -0.3688152OA
63 0.05106084C 
64 -0.0093790C 
65 -0.0325379C 
66 -0.0466763C 
67 -0.0380042C 
68 -0.0470394C 
69 -0.0380056C 
70 -0.0467538C 
71 -0.0346121C 
72 -0.0317774C 
73 -0.0345115C 
74 -0.0440862C 
75 -0.0066912C 
76 0.08762306C 
77 -0.3689724OA
78 0.08732754C 
79 -0.0100917C 
80 -0.0595728C 


$$$$
