
     RDKit          3D

 23 24  0  0  0  0  0  0  0  0999 V2000
    2.7363    2.4518   -0.8413 C   0  0  0  0  0  0  0  0  0  0  0  0
    2.6476    1.0235   -1.2679 C   0  0  1  0  0  0  0  0  0  0  0  0
    3.9191    0.2498   -1.0901 C   0  0  0  0  0  0  0  0  0  0  0  0
    4.0539   -0.3880    0.2617 C   0  0  2  0  0  0  0  0  0  0  0  0
    5.0743   -1.3411    0.2016 O   0  0  0  0  0  0  0  0  0  0  0  0
    2.7698   -1.1064    0.5973 C   0  0  0  0  0  0  0  0  0  0  0  0
    2.0741   -0.2813    1.4989 O   0  0  0  0  0  0  0  0  0  0  0  0
    1.2271    0.5236    0.7232 C   0  0  1  0  0  0  0  0  0  0  0  0
    1.5163    1.8655    1.0348 O   0  0  0  0  0  0  0  0  0  0  0  0
    1.4366    0.3123   -0.7481 C   0  0  1  0  0  0  0  0  0  0  0  0
    0.2779    0.7558   -1.4607 N   0  0  0  0  0  0  0  0  0  0  0  0
   -0.9453    0.1177   -1.0744 C   0  0  1  0  0  0  0  0  0  0  0  0
   -0.8639   -1.3424   -1.3597 C   0  0  0  0  0  0  0  0  0  0  0  0
   -1.7746   -2.1300   -0.5542 N   0  0  0  0  0  3  0  0  0  0  0  0
   -1.6939   -3.4404   -0.8248 O   0  0  0  0  0  0  0  0  0  0  0  0
   -3.0695   -1.6615   -0.5416 N   0  0  0  0  0  0  0  0  0  0  0  0
   -3.2013   -0.5427   -1.4216 C   0  0  0  0  0  3  0  0  0  0  0  0
   -3.5536    0.7447   -0.7573 C   0  0  1  0  0  0  0  0  0  0  0  0
   -4.8942    0.8405   -0.3854 O   0  0  0  0  0  0  0  0  0  0  0  0
   -2.6923    1.0847    0.4332 C   0  0  2  0  0  0  0  0  0  0  0  0
   -2.5079    2.4658    0.4588 O   0  0  0  0  0  0  0  0  0  0  0  0
   -1.3158    0.4641    0.3295 C   0  0  1  0  0  0  0  0  0  0  0  0
   -1.2209   -0.6661    1.1732 O   0  0  0  0  0  0  0  0  0  0  0  0
  2  1  1  1
  2  3  1  0
  3  4  1  0
  4  5  1  6
  4  6  1  0
  6  7  1  0
  7  8  1  0
  8  9  1  6
  8 10  1  0
 10 11  1  6
 12 11  1  1
 12 13  1  0
 13 14  1  0
 14 15  1  0
 14 16  1  0
 16 17  1  0
 17 18  1  0
 18 19  1  1
 18 20  1  0
 20 21  1  6
 20 22  1  0
 22 23  1  1
 10  2  1  0
 22 12  1  0
M  CHG  1  14   1
M  RAD  2  14   2  17   2
M  END
>  <fragInfo>  (1) 
12 13 14 15 16 17 18 19 20 21 22 23
1 2 3 4 5 6 7 8 9 10
11


>  <torsionInfo>  (1) 
11 12 2 0
10 11 1 2


>  <atomInfo>  (1) 
1  -0.0607301C 
2  -0.0213085C 
3  -0.0204638C 
4  0.07776244C 
5  -0.3907148OA
6  0.07580980C 
7  -0.3485112OA
8  0.16982180C 
9  -0.3665942OA
10 0.06124050C 
11 -0.2986072NA
12 0.09661691C 
13 0.20201519C 
14 0.08213508N 
15 -0.1387587OA
16 -0.0742089NA
17 0.11659460C 
18 0.10505710C 
19 -0.3883880OA
20 0.10928011C 
21 -0.3875775OA
22 0.10368307C 
23 -0.3884361OA


$$$$
