
     RDKit          3D

 18 20  0  0  0  0  0  0  0  0999 V2000
   -2.1517   -1.2762   -0.5068 C   0  0  0  0  0  0  0  0  0  0  0  0
   -3.2555   -0.5737    0.2558 C   0  0  2  0  0  0  0  0  0  0  0  0
   -3.4697    0.7780   -0.4346 C   0  0  0  0  0  0  0  0  0  0  0  0
   -2.6885    1.6987    0.4932 C   0  0  1  0  0  0  0  0  0  0  0  0
   -2.9922    1.1885    1.7524 O   0  0  0  0  0  0  0  0  0  0  0  0
   -2.6680   -0.1742    1.6104 C   0  0  0  0  0  3  0  0  0  0  0  0
   -1.2089    1.6536    0.2012 C   0  0  0  0  0  0  0  0  0  0  0  0
   -0.6672    0.3849    0.4280 O   0  0  0  0  0  0  0  0  0  0  0  0
   -0.9042   -0.4531   -0.6212 C   0  0  1  0  0  0  0  0  0  0  0  0
    0.2220   -1.2902   -1.0686 C   0  0  2  0  0  0  0  0  0  0  0  0
    0.5525   -2.4563   -0.1278 C   0  0  0  0  0  3  0  0  0  0  0  0
    2.0148   -2.0186   -0.0888 C   0  0  1  0  0  0  0  0  0  0  0  0
    2.8929   -2.9982   -0.8686 C   0  0  0  0  0  0  0  0  0  0  0  0
    1.6076   -0.8165   -0.9153 C   0  0  2  0  0  0  0  0  0  0  0  0
    1.8347    0.5117   -0.2527 C   0  0  0  0  0  0  0  0  0  0  0  0
    3.3476    0.7317   -0.2368 C   0  0  0  0  0  0  0  0  0  0  0  0
    3.7311    2.0257    0.3984 C   0  0  0  0  0  3  0  0  0  0  0  0
    3.8028    3.0841   -0.4906 O   0  0  0  0  0  0  0  0  0  0  0  0
  2  1  1  6
  2  3  1  0
  3  4  1  0
  4  5  1  0
  5  6  1  0
  4  7  1  6
  7  8  1  0
  8  9  1  0
  9 10  1  0
 10 11  1  1
 11 12  1  0
 12 13  1  6
 12 14  1  0
 14 15  1  1
 15 16  1  0
 16 17  1  0
 17 18  1  0
  9  1  1  1
  6  2  1  0
 14 10  1  0
M  RAD  3   6   2  11   2  17   2
M  END
>  <fragInfo>  (1) 
1 2 3 4 5 6 7 8 9
10 11 12 13 14
15
16
17 18


>  <torsionInfo>  (1) 
9 10 0 1
14 15 1 2
15 16 2 3
16 17 3 4


>  <atomInfo>  (1) 
1  -0.0209135C 
2  -0.0073686C 
3  -0.0189135C 
4  0.08170591C 
5  -0.3695758OA
6  0.08740402C 
7  0.07324861C 
8  -0.3752050OA
9  0.06133849C 
10 -0.0084866C 
11 -0.0295029C 
12 -0.0375607C 
13 -0.0619445C 
14 -0.0328621C 
15 -0.0472524C 
16 -0.0241649C 
17 0.07987681C 
18 -0.3904364OA


$$$$
