
     RDKit          3D

 29 28  0  0  0  0  0  0  0  0999 V2000
   -7.8826    1.1988   -0.3120 C   0  0  0  0  0  0  0  0  0  0  0  0
   -6.5971    0.4852   -0.3008 C   0  0  0  0  0  0  0  0  0  0  0  0
   -6.1530    0.0336   -1.6310 C   0  0  0  0  0  0  0  0  0  0  0  0
   -5.6223    1.0136    0.6497 C   0  0  0  0  0  0  0  0  0  0  0  0
   -4.2964    0.3468    0.6987 C   0  0  0  0  0  0  0  0  0  0  0  0
   -3.4684    0.4141   -0.5347 C   0  0  0  0  0  0  0  0  0  0  0  0
   -3.0690    1.8002   -0.9118 C   0  0  1  0  0  0  0  0  0  0  0  0
   -4.2524    2.6866   -1.1569 C   0  0  0  0  0  0  0  0  0  0  0  0
   -2.0642    2.4369   -0.0679 C   0  0  0  0  0  3  0  0  0  0  0  0
   -0.7089    1.9546    0.0318 C   0  0  0  0  0  0  0  0  0  0  0  0
   -0.3779    0.6055    0.4961 C   0  0  0  0  0  0  0  0  0  0  0  0
   -0.8627   -0.5493   -0.2731 C   0  0  2  0  0  0  0  0  0  0  0  0
   -0.3889   -1.8297    0.4296 C   0  0  0  0  0  0  0  0  0  0  0  0
   -0.8742   -3.0476   -0.3417 C   0  0  0  0  0  3  0  0  0  0  0  0
   -0.3818   -4.2704    0.3905 C   0  0  0  0  0  0  0  0  0  0  0  0
   -0.9497   -4.2647    1.7993 C   0  0  0  0  0  0  0  0  0  0  0  0
   -0.4925   -3.0223    2.5186 C   0  0  0  0  0  0  0  0  0  0  0  0
   -0.4715   -0.6633   -1.6823 C   0  0  0  0  0  0  0  0  0  0  0  0
    0.9143   -0.7911   -2.0415 C   0  0  0  0  0  0  0  0  0  0  0  0
    1.9091    0.2183   -1.6988 C   0  0  0  0  0  3  0  0  0  0  0  0
    2.2455    0.3613   -0.2541 C   0  0  0  0  0  0  0  0  0  0  0  0
    3.2879    1.4525   -0.1195 C   0  0  0  0  0  0  0  0  0  0  0  0
    3.7016    1.6796    1.3133 C   0  0  0  0  0  0  0  0  0  0  0  0
    4.2908    0.4216    1.9085 C   0  0  0  0  0  0  0  0  0  0  0  0
    5.5121   -0.0056    1.1176 C   0  0  1  0  0  0  0  0  0  0  0  0
    5.0988   -0.2700   -0.3161 C   0  0  0  0  0  0  0  0  0  0  0  0
    6.4710    1.0542    1.0671 O   0  0  0  0  0  0  0  0  0  0  0  0
    7.6460    0.8327    0.3837 C   0  0  0  0  0  0  0  0  0  0  0  0
    7.8364   -0.2820   -0.1682 O   0  0  0  0  0  0  0  0  0  0  0  0
  1  2  1  0
  2  3  1  0
  2  4  1  0
  4  5  1  0
  5  6  1  0
  6  7  1  0
  7  8  1  1
  7  9  1  0
  9 10  1  0
 10 11  1  0
 12 11  1  1
 12 13  1  0
 13 14  1  0
 14 15  1  0
 15 16  1  0
 16 17  1  0
 12 18  1  0
 18 19  1  0
 19 20  1  0
 20 21  1  0
 21 22  1  0
 22 23  1  0
 23 24  1  0
 24 25  1  0
 25 26  1  6
 25 27  1  0
 27 28  1  0
 28 29  2  0
M  RAD  3   9   2  14   2  20   2
M  END
>  <fragInfo>  (1) 
1 2 3
4
5
6
7 8
9
10
11
12
13
14
15
16 17
18
19
20
21
22
23
24
25 26
27
28 29


>  <torsionInfo>  (1) 
2 4 0 1
4 5 1 2
5 6 2 3
6 7 3 4
7 9 4 5
9 10 5 6
10 11 6 7
11 12 7 8
12 13 8 9
12 18 8 13
13 14 9 10
14 15 10 11
15 16 11 12
18 19 13 14
19 20 14 15
20 21 15 16
21 22 16 17
22 23 17 18
23 24 18 19
24 25 19 20
25 27 20 21
27 28 21 22


>  <atomInfo>  (1) 
1  -0.0627736C 
2  -0.0471324C 
3  -0.0627736C 
4  -0.0509643C 
5  -0.0527983C 
6  -0.0504266C 
7  -0.0411603C 
8  -0.0622342C 
9  -0.0357403C 
10 -0.0496543C 
11 -0.0501529C 
12 -0.0411341C 
13 -0.0473254C 
14 -0.0383212C 
15 -0.0504353C 
16 -0.0558974C 
17 -0.0653720C 
18 -0.0501631C 
19 -0.0499191C 
20 -0.0385742C 
21 -0.0501805C 
22 -0.0528959C 
23 -0.0497835C 
24 -0.0160500C 
25 0.09870806C 
26 -0.0276621C 
27 -0.4648846OA
28 0.29284242C 
29 -0.2561271OA


$$$$
