
     RDKit          3D

 47 47  0  0  0  0  0  0  0  0999 V2000
   -6.1451    2.0502    2.7540 C   0  0  0  0  0  0  0  0  0  0  0  0
   -5.4385    1.8772    1.6544 C   0  0  0  0  0  0  0  0  0  0  0  0
   -4.5676    2.9736    1.1807 C   0  0  0  0  0  0  0  0  0  0  0  0
   -5.5171    0.6187    0.9150 C   0  0  2  0  0  0  0  0  0  0  0  0
   -5.7339    0.8082   -0.5678 C   0  0  0  0  0  0  0  0  0  0  0  0
   -6.9187   -0.0414   -0.9729 C   0  0  0  0  0  0  0  0  0  0  0  0
   -8.0574    0.8237   -1.4903 C   0  0  0  0  0  3  0  0  0  0  0  0
   -7.6551    1.2897   -2.8857 C   0  0  0  0  0  0  0  0  0  0  0  0
   -9.3252    0.0207   -1.6522 C   0  0  0  0  0  0  0  0  0  0  0  0
  -10.1086   -0.0685   -0.3806 C   0  0  0  0  0  0  0  0  0  0  0  0
   -9.8099    1.1287    0.4960 C   0  0  0  0  0  0  0  0  0  0  0  0
  -10.5059    1.0148    1.8355 C   0  0  0  0  0  3  0  0  0  0  0  0
   -9.4779    1.3038    2.9078 C   0  0  0  0  0  0  0  0  0  0  0  0
   -8.4009    0.2454    2.8126 C   0  0  0  0  0  0  0  0  0  0  0  0
   -7.8481    0.1374    1.4072 C   0  0  0  0  0  0  0  0  0  0  0  0
   -6.4390   -0.3903    1.5141 C   0  0  1  0  0  0  0  0  0  0  0  0
   -6.2541   -1.7033    0.8206 C   0  0  0  0  0  0  0  0  0  0  0  0
   -4.8220   -2.1452    1.0001 C   0  0  0  0  0  0  0  0  0  0  0  0
   -3.8477   -1.1455    0.4147 C   0  0  0  0  0  3  0  0  0  0  0  0
   -2.3989   -1.6583    0.6261 C   0  0  1  0  0  0  0  0  0  0  0  0
   -1.6030   -0.4696   -0.0560 C   0  0  0  0  0  0  0  0  0  0  0  0
   -2.0046    0.7946    0.7136 C   0  0  0  0  0  0  0  0  0  0  0  0
   -1.3263    1.9812    0.1107 C   0  0  0  0  0  0  0  0  0  0  0  0
    0.1691    1.8781    0.1780 C   0  0  0  0  0  0  0  0  0  0  0  0
    0.5884    1.7794    1.6486 C   0  0  0  0  0  0  0  0  0  0  0  0
   -2.0871   -1.6724    1.9545 O   0  0  0  0  0  0  0  0  0  0  0  0
   -1.0301   -2.2702    2.4380 C   0  0  0  0  0  0  0  0  0  0  0  0
    0.3059   -1.9871    1.9239 C   0  0  0  0  0  0  0  0  0  0  0  0
    0.4513   -2.3504    0.4716 C   0  0  0  0  0  0  0  0  0  0  0  0
    1.8199   -2.1488   -0.0734 C   0  0  0  0  0  0  0  0  0  0  0  0
    2.2399   -0.7165    0.0575 C   0  0  0  0  0  0  0  0  0  0  0  0
    3.6268   -0.5285   -0.4983 C   0  0  0  0  0  0  0  0  0  0  0  0
    4.6262   -1.3894    0.2446 C   0  0  0  0  0  0  0  0  0  0  0  0
    5.9862   -1.1145   -0.4044 C   0  0  0  0  0  0  0  0  0  0  0  0
    6.3024    0.3515   -0.2578 C   0  0  1  0  0  0  0  0  0  0  0  0
    6.3582    0.7452    1.1850 C   0  0  0  0  0  0  0  0  0  0  0  0
    7.5598    0.6419   -0.8806 N   0  0  0  0  0  2  0  0  0  0  0  0
    7.8667   -0.2967   -1.9334 C   0  0  0  0  0  0  0  0  0  0  0  0
    8.0463    0.4248   -3.2552 C   0  0  0  0  0  0  0  0  0  0  0  0
    8.3669   -0.5563   -4.3555 C   0  0  0  0  0  2  0  0  0  0  0  0
    9.8277   -0.9506   -4.3594 C   0  0  0  0  0  0  0  0  0  0  0  0
   10.5448   -0.3288   -3.1743 C   0  0  0  0  0  0  0  0  0  0  0  0
   12.0044   -0.7120   -3.1627 C   0  0  0  0  0  0  0  0  0  0  0  0
   12.7145   -0.1025   -1.9982 C   0  0  0  0  0  3  0  0  0  0  0  0
   12.1145   -0.5555   -0.7148 C   0  0  0  0  0  0  0  0  0  0  0  0
   12.6046   -0.1515    0.3640 N   0  0  0  0  0  4  0  0  0  0  0  0
   13.1983   -0.0374    1.4449 N   0  0  0  0  0  2  0  0  0  0  0  0
  1  2  2  0
  2  3  1  0
  4  2  1  1
  4  5  1  0
  5  6  1  0
  6  7  1  0
  7  8  1  0
  7  9  1  0
  9 10  1  0
 10 11  1  0
 11 12  1  0
 12 13  1  0
 13 14  1  0
 14 15  1  0
 15 16  1  0
 16 17  1  6
 17 18  1  0
 18 19  1  0
 20 19  1  1
 20 21  1  0
 21 22  1  0
 22 23  1  0
 23 24  1  0
 24 25  1  0
 20 26  1  0
 26 27  1  0
 27 28  1  0
 28 29  1  0
 29 30  1  0
 30 31  1  0
 31 32  1  0
 32 33  1  0
 33 34  1  0
 34 35  1  0
 35 36  1  1
 35 37  1  0
 37 38  1  0
 38 39  1  0
 39 40  1  0
 40 41  1  0
 41 42  1  0
 42 43  1  0
 43 44  1  0
 44 45  1  0
 45 46  2  0
 46 47  2  0
 16  4  1  0
M  CHG  3  37   1  46   1  47  -1
M  RAD  6   7   2  12   2  19   2  37   3  40   3  44   2
M  END
>  <fragInfo>  (1) 
4 5 6 7 8 9 10 11 12 13 14 15 16
1 2 3
17
18
19
20
21
22
23
24 25
26
27
28
29
30
31
32
33
34
35 36
37
38
39
40
41
42
43
44
45 46 47


>  <torsionInfo>  (1) 
2 4 1 0
16 17 0 2
17 18 2 3
18 19 3 4
19 20 4 5
20 21 5 6
20 26 5 10
21 22 6 7
22 23 7 8
23 24 8 9
26 27 10 11
27 28 11 12
28 29 12 13
29 30 13 14
30 31 14 15
31 32 15 16
32 33 16 17
33 34 17 18
34 35 18 19
35 37 19 20
37 38 20 21
38 39 21 22
39 40 22 23
40 41 23 24
41 42 24 25
42 43 25 26
43 44 26 27
44 45 27 28


>  <atomInfo>  (1) 
1  -0.0998503C 
2  -0.0771344C 
3  -0.0439154C 
4  -0.0180114C 
5  -0.0459108C 
6  -0.0467600C 
7  -0.0271710C 
8  -0.0591219C 
9  -0.0473296C 
10 -0.0524930C 
11 -0.0501625C 
12 -0.0385840C 
13 -0.0501725C 
14 -0.0527467C 
15 -0.0498651C 
16 -0.0348562C 
17 -0.0495044C 
18 -0.0473230C 
19 -0.0096721C 
20 0.06064197C 
21 -0.0264469C 
22 -0.0508371C 
23 -0.0534734C 
24 -0.0561700C 
25 -0.0653823C 
26 -0.3779218OA
27 0.04694642C 
28 -0.0295883C 
29 -0.0511139C 
30 -0.0532217C 
31 -0.0533004C 
32 -0.0530698C 
33 -0.0472378C 
34 0.00994059C 
35 0.19006410C 
36 -0.0015264C 
37 0.06054108N 
38 0.18430914C 
39 0.01417361C 
40 -0.0111158C 
41 -0.0462280C 
42 -0.0518794C 
43 -0.0391088C 
44 0.06654843C 
45 0.26077109C 
46 -0.1799622N 
47 -0.3619203NA


$$$$
