
     RDKit          3D

 11 11  0  0  0  0  0  0  0  0999 V2000
   -2.3631   -1.0683    1.0824 O   0  0  0  0  0  0  0  0  0  0  0  0
   -2.5124   -0.6372   -0.2480 C   0  0  0  0  0  0  0  0  0  0  0  0
   -1.1135   -0.3162   -0.7794 C   0  0  2  0  0  0  0  0  0  0  0  0
   -0.3367   -1.4898   -0.7080 N   0  0  0  0  0  0  0  0  0  0  0  0
    1.0482   -1.3905   -0.5569 C   0  0  0  0  0  0  0  0  0  0  0  0
    1.5933   -0.0573   -0.1849 C   0  0  2  0  0  0  0  0  0  0  0  0
    2.8837   -0.0801    0.2476 O   0  0  0  0  0  0  0  0  0  0  0  0
    0.6241    0.5644    0.7950 C   0  0  1  0  0  0  0  0  0  0  0  0
    1.1438    1.7095    1.3383 O   0  0  0  0  0  0  0  0  0  0  0  0
   -0.6187    0.8757   -0.0416 C   0  0  1  0  0  0  0  0  0  0  0  0
   -0.3487    1.8898   -0.9443 O   0  0  0  0  0  0  0  0  0  0  0  0
  1  2  1  0
  3  2  1  1
  3  4  1  0
  4  5  1  0
  5  6  1  0
  6  7  1  1
  6  8  1  0
  8  9  1  6
  8 10  1  0
 10 11  1  6
 10  3  1  0
M  END
>  <fragInfo>  (1) 
3 4 5 6 7 8 9 10 11
1 2


>  <torsionInfo>  (1) 
2 3 1 0


>  <atomInfo>  (1) 
1  -0.3946490OA
2  0.06105637C 
3  0.05902457C 
4  -0.3067635NA
5  0.02436730C 
6  0.09488935C 
7  -0.3889905OA
8  0.10855016C 
9  -0.3875979OA
10 0.09995681C 
11 -0.3885947OA


$$$$
