
     RDKit          3D

 34 33  0  0  0  0  0  0  0  0999 V2000
   -1.9813    2.0608    1.9154 C   0  0  0  0  0  0  0  0  0  0  0  0
   -2.9857    2.5666    1.0740 O   0  0  0  0  0  0  0  0  0  0  0  0
   -4.2017    2.0271    1.4954 C   0  0  0  0  0  3  0  0  0  0  0  0
   -5.0887    2.0241    0.4000 O   0  0  0  0  0  0  0  0  0  0  0  0
   -4.3577    2.0724   -0.8031 C   0  0  2  0  0  0  0  0  0  0  0  0
   -5.4252    2.0873   -1.9148 C   0  0  0  0  0  0  0  0  0  0  0  0
   -3.5849    0.7822   -1.0202 C   0  0  0  0  0  3  0  0  0  0  0  0
   -4.4632   -0.4200   -0.9179 C   0  0  1  0  0  0  0  0  0  0  0  0
   -3.7260   -1.6633   -1.2263 C   0  0  0  0  0  3  0  0  0  0  0  0
   -2.6561   -2.1462   -0.4008 C   0  0  0  0  0  0  0  0  0  0  0  0
   -1.4378   -1.4849   -0.0911 C   0  0  2  0  0  0  0  0  0  0  0  0
   -0.5078   -2.2294    0.7825 C   0  0  0  0  0  2  0  0  0  0  0  0
   -1.1659   -0.1978   -0.3772 O   0  0  0  0  0  0  0  0  0  0  0  0
    0.1302    0.0836    0.1225 C   0  0  0  0  0  0  0  0  0  0  0  0
    1.1101   -0.8526   -0.5654 C   0  0  0  0  0  0  0  0  0  0  0  0
    2.5163   -0.6434   -0.0773 C   0  0  0  0  0  3  0  0  0  0  0  0
    3.1356    0.3335   -0.8400 O   0  0  0  0  0  0  0  0  0  0  0  0
    3.5990    1.2949    0.0804 C   0  0  0  0  0  3  0  0  0  0  0  0
    4.1848    0.5595    1.1210 O   0  0  0  0  0  0  0  0  0  0  0  0
    5.0405   -0.3854    0.5564 C   0  0  2  0  0  0  0  0  0  0  0  0
    5.6578   -1.1452    1.5412 O   0  0  0  0  0  1  0  0  0  0  0  0
    6.0311    0.2655   -0.1729 O   0  0  0  0  0  0  0  0  0  0  0  0
    6.8704   -0.5704   -0.7262 O   0  0  0  0  0  0  0  0  0  0  0  0
    7.7586    0.0938   -1.5680 C   0  0  0  0  0  3  0  0  0  0  0  0
    8.8950    0.7170   -0.7857 C   0  0  0  0  0  3  0  0  0  0  0  0
    9.4278   -0.2663    0.0756 O   0  0  0  0  0  0  0  0  0  0  0  0
    9.9823    0.4071    1.1436 C   0  0  0  0  0  3  0  0  0  0  0  0
   10.9356    1.4237    0.7277 N   0  0  0  0  0  0  0  0  0  0  0  0
   -5.1080   -0.4502    0.3910 N   0  0  0  0  0  0  0  0  0  0  0  0
   -5.4822   -1.7634    0.8181 C   0  0  0  0  0  3  0  0  0  0  0  0
   -6.9052   -2.1201    0.4474 C   0  0  0  0  0  3  0  0  0  0  0  0
   -7.5951   -1.0188   -0.0565 O   0  0  0  0  0  0  0  0  0  0  0  0
   -8.9814   -1.2406   -0.0210 C   0  0  0  0  0  3  0  0  0  0  0  0
   -9.6211   -0.2013   -0.6558 F   0  0  0  0  0  0  0  0  0  0  0  0
  1  2  1  0
  2  3  1  0
  3  4  1  0
  4  5  1  0
  5  6  1  6
  5  7  1  0
  8  7  1  1
  8  9  1  0
  9 10  1  0
 10 11  1  0
 11 12  1  1
 11 13  1  0
 13 14  1  0
 14 15  1  0
 15 16  1  0
 16 17  1  0
 17 18  1  0
 18 19  1  0
 19 20  1  0
 20 21  1  1
 20 22  1  0
 22 23  1  0
 23 24  1  0
 24 25  1  0
 25 26  1  0
 26 27  1  0
 27 28  1  0
  8 29  1  0
 29 30  1  0
 30 31  1  0
 31 32  1  0
 32 33  1  0
 33 34  1  0
M  RAD  8   3   2   7   2   9   2  12   3  16   2  18   2  24   2  25   2
M  CHG  1  21  -1
M  RAD  4  27   2  30   2  31   2  33   2
M  END
>  <fragInfo>  (1) 
1 2
3
4
5 6
7
8
9
10
11 12
13
14
15
16
17
18
19
20 21
22
23
24
25
26
27 28
29
30
31
32
33 34


>  <torsionInfo>  (1) 
2 3 0 1
3 4 1 2
4 5 2 3
5 7 3 4
7 8 4 5
8 9 5 6
8 29 5 23
9 10 6 7
10 11 7 8
11 13 8 9
13 14 9 10
14 15 10 11
15 16 11 12
16 17 12 13
17 18 13 14
18 19 14 15
19 20 15 16
20 22 16 17
22 23 17 18
23 24 18 19
24 25 19 20
25 26 20 21
26 27 21 22
29 30 23 24
30 31 24 25
31 32 25 26
32 33 26 27


>  <atomInfo>  (1) 
1  0.03885651C 
2  -0.3513313OA
3  0.20894130C 
4  -0.3445557OA
5  0.06278532C 
6  -0.0382023C 
7  0.00736462C 
8  0.01608854C 
9  -0.0186700C 
10 -0.0217621C 
11 0.06136417C 
12 -0.0036179C 
13 -0.3777928OA
14 0.04952204C 
15 -0.0003930C 
16 0.08942400C 
17 -0.3417488OA
18 0.21068388C 
19 -0.3300829OA
20 0.12658919C 
21 -0.8067786OA
22 -0.2216574OA
23 -0.2262199OA
24 0.15366239C 
25 0.12088871C 
26 -0.3503534OA
27 0.14558939C 
28 -0.3027440NA
29 -0.3064860NA
30 0.05430261C 
31 0.10591057C 
32 -0.3361249OA
33 0.25542753C 
34 -0.2099357F 


$$$$
