
     RDKit          3D

 17 17  0  0  0  0  0  0  0  0999 V2000
    5.3366    0.4355   -0.2212 C   0  0  0  0  0  0  0  0  0  0  0  0
    4.2395   -0.2165   -0.7548 O   0  0  0  0  0  0  0  0  0  0  0  0
    3.2334   -0.1947    0.2344 C   0  0  0  0  0  0  0  0  0  0  0  0
    2.0396   -0.8988   -0.3336 C   0  0  1  0  0  0  0  0  0  0  0  0
    2.3070   -2.2066   -0.6755 O   0  0  0  0  0  0  0  0  0  0  0  0
    0.8558   -0.8251    0.6050 C   0  0  2  0  0  0  0  0  0  0  0  0
   -0.2363   -1.3737   -0.0554 O   0  0  0  0  0  0  0  0  0  0  0  0
    0.6567    0.6043    1.0037 C   0  0  1  0  0  0  0  0  0  0  0  0
    1.2350    1.4224    0.0532 O   0  0  0  0  0  0  0  0  0  0  0  0
   -0.7748    1.0004    1.1713 C   0  0  0  0  0  3  0  0  0  0  0  0
   -1.2161    1.6422   -0.0717 N   0  0  0  0  0  0  0  0  0  0  0  0
   -2.5540    2.2054    0.0802 C   0  0  0  0  0  3  0  0  0  0  0  0
   -3.5828    1.2722   -0.5122 C   0  0  0  0  0  0  0  0  0  0  0  0
   -3.3797   -0.0922    0.1248 C   0  0  1  0  0  0  0  0  0  0  0  0
   -4.5332   -0.8689    0.0299 O   0  0  0  0  0  0  0  0  0  0  0  0
   -2.2654   -0.8008   -0.4369 N   0  0  0  0  0  0  0  0  0  0  0  0
   -1.3612   -1.1054    0.5410 O   0  0  0  0  0  0  0  0  0  0  0  0
  1  2  1  0
  2  3  1  0
  3  4  1  0
  4  5  1  1
  4  6  1  0
  6  7  1  6
  6  8  1  0
  8  9  1  6
  8 10  1  0
 10 11  1  0
 11 12  1  0
 12 13  1  0
 13 14  1  0
 14 15  1  6
 14 16  1  0
 16 17  1  0
 17  7  1  0
M  RAD  2  10   2  12   2
M  END
>  <fragInfo>  (1) 
6 7 8 9 10 11 12 13 14 15 16 17
1 2
3
4 5


>  <torsionInfo>  (1) 
4 6 3 0
2 3 1 2
3 4 2 3


>  <atomInfo>  (1) 
1  0.03559224C 
2  -0.3818945OA
3  0.07498127C 
4  0.10930236C 
5  -0.3877611OA
6  0.15026775C 
7  -0.2090018OA
8  0.10295781C 
9  -0.3884783OA
10 0.05408214C 
11 -0.3054550NA
12 0.02650595C 
13 0.00570950C 
14 0.13115373C 
15 -0.3763186OA
16 -0.1412084NA
17 -0.1401987OA


$$$$
