
     RDKit          3D

 35 35  0  0  0  0  0  0  0  0999 V2000
   -2.9762   -0.3506   -0.1798 O   0  0  0  0  0  0  0  0  0  0  0  0
   -2.6601   -0.8847    1.1121 C   0  0  0  0  0  0  0  0  0  0  0  0
   -3.9942   -1.0567    1.7874 C   0  0  0  0  0  0  0  0  0  0  0  0
   -4.6159   -2.0164    0.7544 C   0  0  0  0  0  0  0  0  0  0  0  0
   -5.9182   -1.6197    0.5071 C   0  0  0  0  0  0  0  0  0  0  0  0
   -7.1312   -1.9755    0.7982 C   0  0  0  0  0  0  0  0  0  0  0  0
   -8.3437   -1.4171    0.7063 C   0  0  0  0  0  0  0  0  0  0  0  0
   -8.2626   -0.0932    0.1258 C   0  0  0  0  0  0  0  0  0  0  0  0
   -9.4875    0.5188    0.0353 F   0  0  0  0  0  0  0  0  0  0  0  0
   -7.1359    0.3635   -0.1856 C   0  0  0  0  0  0  0  0  0  0  0  0
   -5.8959   -0.1481   -0.1041 C   0  0  0  0  0  0  0  0  0  0  0  0
   -1.3864   -1.0640    1.2747 N   0  0  0  0  0  0  0  0  0  0  0  0
   -0.2973   -0.9180    0.5830 C   0  0  0  0  0  0  0  0  0  0  0  0
    0.3430   -1.6063   -0.5158 C   0  0  0  0  0  0  0  0  0  0  0  0
    1.4094   -0.4797   -1.1003 N   0  0  0  0  0  0  0  0  0  0  0  0
    2.1499   -0.2697    0.2528 C   0  0  0  0  0  0  0  0  0  0  0  0
    3.3423    0.5385    0.0917 C   0  0  0  0  0  0  0  0  0  0  0  0
    4.5744   -0.4108   -0.4499 C   0  0  0  0  0  0  0  0  0  0  0  0
    4.5242   -1.4590    0.6397 C   0  0  0  0  0  0  0  0  0  0  0  0
    4.8150   -1.3399    1.9200 C   0  0  0  0  0  0  0  0  0  0  0  0
    5.7272   -0.4999    2.4979 C   0  0  0  0  0  0  0  0  0  0  0  0
    6.4855    0.2334    1.5113 C   0  0  0  0  0  0  0  0  0  0  0  0
    7.2289    0.9408    0.5247 C   0  0  0  0  0  0  0  0  0  0  0  0
    7.8740    1.5725   -0.3199 F   0  0  0  0  0  0  0  0  0  0  0  0
    4.0420   -2.7562    0.1998 C   0  0  0  0  0  0  0  0  0  0  0  0
    3.7634   -3.1254   -1.2950 C   0  0  0  0  0  3  0  0  0  0  0  0
    4.8674   -2.2610   -1.7965 C   0  0  0  0  0  0  0  0  0  0  0  0
    5.9468   -1.3847   -2.3029 N   0  0  0  0  0  0  0  0  0  0  0  0
    0.4679    0.6785   -1.1637 C   0  0  0  0  0  0  0  0  0  0  0  0
    0.4951    1.2785    0.3766 C   0  0  0  0  0  0  0  0  0  0  0  0
   -0.5331    2.1820    0.3007 N   0  0  0  0  0  0  0  0  0  0  0  0
   -0.1964    3.3667   -0.1733 N   0  0  0  0  0  0  0  0  0  0  0  0
    0.8957    4.1592    0.1578 C   0  0  0  0  0  0  0  0  0  0  0  0
    0.6137    5.4597    0.4631 C   0  0  0  0  0  0  0  0  0  0  0  0
   -0.7313    5.8443    0.4308 F   0  0  0  0  0  0  0  0  0  0  0  0
  1  2  2  0
  2  3  1  0
  3  4  1  0
  4  5  1  0
  5  6  2  0
  6  7  1  0
  7  8  2  0
  8  9  1  0
  8 10  1  0
 10 11  2  0
  2 12  1  0
 12 13  1  0
 13 14  1  0
 14 15  1  0
 15 16  1  0
 16 17  1  0
 17 18  1  0
 18 19  1  0
 19 20  1  0
 20 21  2  3
 21 22  1  0
 22 23  3  0
 23 24  1  0
 19 25  2  3
 25 26  1  0
 26 27  1  0
 27 28  3  0
 15 29  1  0
 29 30  1  0
 30 31  1  0
 31 32  1  0
 32 33  1  0
 33 34  2  3
 34 35  1  0
 11  5  1  0
M  RAD  1  26   2
M  END
>  <fragInfo>  (1) 
5 6 7 8 9 10 11
1 2 12
3
4
13
14
15
16
17
18
19 25
20 21 22 23 24
26 27 28
29
30
31
32
33 34 35


>  <torsionInfo>  (1) 
4 5 3 0
2 3 1 2
12 13 1 4
3 4 2 3
13 14 4 5
14 15 5 6
15 16 6 7
15 29 6 13
16 17 7 8
17 18 8 9
18 19 9 10
19 20 10 11
25 26 10 12
29 30 13 14
30 31 14 15
31 32 15 16
32 33 16 17


>  <atomInfo>  (1) 
1  -0.2751301OA
2  0.21987404C 
3  0.03050762C 
4  -0.0190848C 
5  -0.0473020A 
6  -0.0561216A 
7  -0.0260496A 
8  0.12272721A 
9  -0.2070121F 
10 -0.0260496A 
11 -0.0561216A 
12 -0.3548095N 
13 0.03012114C 
14 0.01568026C 
15 -0.3002427NA
16 -0.0014265C 
17 -0.0363580C 
18 -0.0269166C 
19 -0.0499668C 
20 -0.0508388C 
21 -0.0089346C 
22 -0.0388295C 
23 0.10992384C 
24 -0.1438340F 
25 -0.0625930C 
26 0.08423408C 
27 0.07145294C 
28 -0.1976207NA
29 0.01259133C 
30 0.02752537C 
31 -0.2362190NA
32 -0.3264171N 
33 0.04082525C 
34 0.10372578C 
35 -0.2138979F 


$$$$
