
     RDKit          3D

 14 15  0  0  0  0  0  0  0  0999 V2000
   -3.3877   -0.9389    0.5393 O   0  0  0  0  0  0  0  0  0  0  0  0
   -2.1887   -1.0452    0.2180 C   0  0  0  0  0  0  0  0  0  0  0  0
   -1.6923   -2.2640   -0.1758 O   0  0  0  0  0  0  0  0  0  0  0  0
   -1.3298    0.1175    0.2628 C   0  0  0  0  0  0  0  0  0  0  0  0
   -1.7947    1.3598    0.6538 C   0  0  0  0  0  0  0  0  0  0  0  0
   -0.9491    2.4404    0.6836 C   0  0  0  0  0  0  0  0  0  0  0  0
    0.3852    2.3555    0.3335 C   0  0  0  0  0  0  0  0  0  0  0  0
    0.8594    1.1362   -0.0547 C   0  0  0  0  0  0  0  0  0  0  0  0
    0.0185    0.0452   -0.0880 C   0  0  0  0  0  0  0  0  0  0  0  0
    0.3274   -1.2892   -0.4607 N   0  0  0  0  0  0  0  0  0  0  0  0
    1.6051   -1.9078   -0.4394 C   0  0  0  0  0  0  0  0  0  0  0  0
    2.7848   -1.3023   -0.4896 C   0  0  0  0  0  0  0  0  0  0  0  0
    3.0658    0.1274   -0.5779 C   0  0  0  0  0  0  0  0  0  0  0  0
    2.2960    1.1654   -0.4050 C   0  0  0  0  0  0  0  0  0  0  0  0
  1  2  2  0
  2  3  1  0
  2  4  1  0
  4  5  2  0
  5  6  1  0
  6  7  2  0
  7  8  1  0
  8  9  2  0
  9 10  1  0
 10 11  1  0
 11 12  2  0
 12 13  1  0
 13 14  2  0
  9  4  1  0
 14  8  1  0
M  END
>  <fragInfo>  (1) 
4 5 6 7 8 9 10 11 12 13 14
1 2 3


>  <torsionInfo>  (1) 
2 4 1 0


>  <atomInfo>  (1) 
1  -0.2463078OA
2  0.33733253C 
3  -0.4775830OA
4  0.08349429A 
5  -0.0455190A 
6  -0.0606580A 
7  -0.0528447A 
8  -0.0012048A 
9  0.06000385A 
10 -0.3604975N 
11 0.00103542C 
12 -0.0461303C 
13 -0.0601496C 
14 -0.0528181C 


$$$$
