
     RDKit          3D

 10  9  0  0  0  0  0  0  0  0999 V2000
    3.2273   -1.7266    0.5158 C   0  0  0  0  0  0  0  0  0  0  0  0
    2.0807   -1.1276    0.3848 C   0  0  0  0  0  0  0  0  0  0  0  0
    1.8011   -0.0916   -0.5995 C   0  0  0  0  0  0  0  0  0  0  0  0
    0.5927    0.4314   -0.6216 C   0  0  0  0  0  0  0  0  0  0  0  0
   -0.6703    0.7612   -0.3736 C   0  0  0  0  0  0  0  0  0  0  0  0
   -1.6528    0.0229   -1.0959 C   0  0  0  0  0  0  0  0  0  0  0  0
   -2.4004   -0.9482   -0.6520 C   0  0  0  0  0  0  0  0  0  0  0  0
   -2.3609   -1.4751    0.7276 C   0  0  0  0  0  0  0  0  0  0  0  0
   -0.8904    1.8220    0.5984 C   0  0  0  0  0  0  0  0  0  0  0  0
    0.2730    2.3316    1.1161 F   0  0  0  0  0  0  0  0  0  0  0  0
  1  2  2  0
  2  3  1  0
  3  4  2  0
  4  5  2  0
  5  6  1  0
  6  7  2  3
  7  8  1  0
  5  9  1  0
  9 10  1  0
M  END
>  <fragInfo>  (1) 
3 4 5
1 2
6 7 8
9 10


>  <torsionInfo>  (1) 
2 3 1 0
5 6 0 2
5 9 0 3


>  <atomInfo>  (1) 
1  -0.0984512C 
2  -0.0617320C 
3  -0.0201810C 
4  -0.1145948C 
5  0.02462628C 
6  -0.0528993C 
7  -0.0866737C 
8  -0.0466448C 
9  0.12161071C 
10 -0.2452472F 


$$$$
