
     RDKit          3D

 10 10  0  0  0  0  0  0  0  0999 V2000
    2.4472   -0.8359    0.4342 C   0  0  0  0  0  0  0  0  0  0  0  0
    1.8528   -0.4340   -0.8810 C   0  0  0  0  0  3  0  0  0  0  0  0
    0.4102    0.0008   -0.7574 C   0  0  1  0  0  0  0  0  0  0  0  0
   -0.4372   -1.1409   -0.1990 C   0  0  1  0  0  0  0  0  0  0  0  0
    0.1921   -1.5833    0.9580 O   0  0  0  0  0  0  0  0  0  0  0  0
   -1.6694   -0.3489    0.2624 C   0  0  2  0  0  0  0  0  0  0  0  0
   -2.1562    0.2803   -0.9056 O   0  0  0  0  0  0  0  0  0  0  0  0
   -0.9735    0.7319    1.0979 C   0  0  0  0  0  3  0  0  0  0  0  0
    0.2728    1.0548    0.3105 C   0  0  2  0  0  0  0  0  0  0  0  0
    0.0611    2.2753   -0.3200 O   0  0  0  0  0  0  0  0  0  0  0  0
  1  2  1  0
  3  2  1  1
  3  4  1  0
  4  5  1  1
  4  6  1  0
  6  7  1  6
  6  8  1  0
  8  9  1  0
  9 10  1  6
  9  3  1  0
M  RAD  2   2   2   8   2
M  END
>  <fragInfo>  (1) 
3 4 5 6 7 8 9 10
1 2


>  <torsionInfo>  (1) 
2 3 1 0


>  <atomInfo>  (1) 
1  -0.0617811C 
2  -0.0333354C 
3  0.01660565C 
4  0.08579986C 
5  -0.3900164OA
6  0.08599397C 
7  -0.3900128OA
8  0.02164568C 
9  0.06547082C 
10 -0.3923176OA


$$$$
