
     RDKit          2D

 22 24  0  0  0  0  0  0  0  0999 V2000
    9.5260   -3.8971    0.0000 C   0  0  0  0  0  0  0  0  0  0  0  0
    8.0260   -3.8971    0.0000 C   0  0  0  0  0  0  0  0  0  0  0  0
    7.2760   -2.5981    0.0000 C   0  0  0  0  0  0  0  0  0  0  0  0
    5.7760   -2.5981    0.0000 C   0  0  0  0  0  0  0  0  0  0  0  0
    5.0260   -1.2990    0.0000 C   0  0  0  0  0  0  0  0  0  0  0  0
    3.5260   -1.2990    0.0000 C   0  0  0  0  0  0  0  0  0  0  0  0
    2.7760    0.0000    0.0000 C   0  0  0  0  0  0  0  0  0  0  0  0
    1.2760    0.0000    0.0000 C   0  0  0  0  0  0  0  0  0  0  0  0
    0.3943    1.2135    0.0000 C   0  0  0  0  0  0  0  0  0  0  0  0
   -1.0323    0.7500    0.0000 C   0  0  0  0  0  0  0  0  0  0  0  0
   -1.0323   -0.7500    0.0000 C   0  0  0  0  0  0  0  0  0  0  0  0
    0.3943   -1.2135    0.0000 C   0  0  0  0  0  0  0  0  0  0  0  0
   -0.1869   -2.7713    0.0000 C   0  0  0  0  0  0  0  0  0  0  0  0
   -1.6455   -3.1214    0.0000 C   0  0  0  0  0  0  0  0  0  0  0  0
    0.6948   -3.9848    0.0000 C   0  0  0  0  0  0  0  0  0  0  0  0
   -2.4908    0.3998    0.0000 C   0  0  0  0  0  0  0  0  0  0  0  0
   -3.9724    0.1652    0.0000 N   0  0  0  0  0  0  0  0  0  0  0  0
   -4.2070   -1.3164    0.0000 C   0  0  0  0  0  0  0  0  0  0  0  0
   -2.9244   -2.3377    0.0000 C   0  0  0  0  0  0  0  0  0  0  0  0
   -3.2746   -0.8791    0.0000 C   0  0  0  0  0  0  0  0  0  0  0  0
   -3.9469   -0.4508    0.0000 C   0  0  0  0  0  0  0  0  0  0  0  0
   -4.7268   -1.2546    0.0000 C   0  0  0  0  0  0  0  0  0  0  0  0
  1  2  1  0
  2  3  1  0
  3  4  1  0
  4  5  1  0
  5  6  1  0
  6  7  1  0
  7  8  2  3
  8  9  1  0
  9 10  2  0
 10 11  1  0
 11 12  2  0
 12 13  1  0
 13 14  1  0
 13 15  1  0
 10 16  1  0
 16 17  1  0
 17 18  1  0
 18 19  2  0
 19 20  1  0
 20 21  1  0
 20 22  1  0
 12  8  1  0
 19 14  1  0
 20 16  1  0
M  END
>  <fragInfo>  (1) 
7 8 9 10 11 12 13 14 15 16 17 18 19 20 21 22
1 2
3
4
5
6


>  <torsionInfo>  (1) 
6 7 5 0
2 3 1 2
3 4 2 3
4 5 3 4
5 6 4 5


>  <atomInfo>  (1) 
1  -0.0653823C 
2  -0.0561714C 
3  -0.0535576C 
4  -0.0530205C 
5  -0.0497922C 
6  -0.0341622C 
7  -0.0769628C 
8  -0.0258039C 
9  -0.0496816C 
10 -0.0240374C 
11 -0.0528266C 
12 -0.0375700C 
13 -0.0146327C 
14 -0.0229933C 
15 -0.0580835C 
16 0.05969023C 
17 -0.3832284N 
18 -0.0032509C 
19 -0.0458889C 
20 0.01164464C 
21 -0.0537552C 
22 -0.0537552C 


$$$$
