
     RDKit          3D

 27 28  0  0  0  0  0  0  0  0999 V2000
   -2.9145    2.4720   -0.2894 O   0  0  0  0  0  0  0  0  0  0  0  0
   -4.2137    2.1699   -0.1919 O   0  0  0  0  0  0  0  0  0  0  0  0
   -4.4278    1.0043   -0.9302 C   0  0  0  0  0  3  0  0  0  0  0  0
   -4.5837   -0.1153   -0.1113 O   0  0  0  0  0  0  0  0  0  0  0  0
   -3.5756   -1.0351   -0.3105 C   0  0  2  0  0  0  0  0  0  0  0  0
   -4.0325   -2.4399   -0.4698 C   0  0  0  0  0  0  0  0  0  0  0  0
   -2.4985   -0.8873    0.7754 C   0  0  1  0  0  0  0  0  0  0  0  0
   -1.2273   -1.0148    0.0611 N   0  0  0  0  0  0  0  0  0  0  0  0
   -0.5612   -2.2514    0.3344 C   0  0  0  0  0  3  0  0  0  0  0  0
    0.5107   -2.4035   -0.7538 C   0  0  0  0  0  0  0  0  0  0  0  0
    1.4704   -3.5031   -0.4533 C   0  0  0  0  0  3  0  0  0  0  0  0
    1.5713   -3.6742    0.9057 O   0  0  0  0  0  0  0  0  0  0  0  0
    2.8044   -3.1381   -1.0974 C   0  0  0  0  0  0  0  0  0  0  0  0
    3.7195   -2.4692   -0.1246 C   0  0  0  0  0  0  0  0  0  0  0  0
    3.8195   -1.0836   -0.3332 O   0  0  0  0  0  0  0  0  0  0  0  0
    4.1976   -0.5254    0.8792 C   0  0  0  0  0  0  0  0  0  0  0  0
    4.0974    0.8424    0.9236 O   0  0  0  0  0  0  0  0  0  0  0  0
    3.8464    1.4319   -0.3041 C   0  0  2  0  0  0  0  0  0  0  0  0
    4.3983    2.7270   -0.2490 O   0  0  0  0  0  0  0  0  0  0  0  0
    2.3549    1.4972   -0.5571 C   0  0  0  0  0  3  0  0  0  0  0  0
    1.9773    2.8278   -0.5823 O   0  0  0  0  0  0  0  0  0  0  0  0
    0.6621    3.0255   -0.9536 C   0  0  0  0  0  3  0  0  0  0  0  0
   -0.2611    2.4415    0.1118 C   0  0  0  0  0  3  0  0  0  0  0  0
   -2.5534    0.6112    1.1303 C   0  0  1  0  0  0  0  0  0  0  0  0
   -1.4524    0.8526    1.9487 O   0  0  0  0  0  0  0  0  0  0  0  0
   -2.2356    1.2843   -0.2154 C   0  0  2  0  0  0  0  0  0  0  0  0
   -0.8927    1.3531   -0.4579 O   0  0  0  0  0  0  0  0  0  0  0  0
  1  2  1  0
  2  3  1  0
  3  4  1  0
  4  5  1  0
  5  6  1  1
  5  7  1  0
  7  8  1  6
  8  9  1  0
  9 10  1  0
 10 11  1  0
 11 12  1  0
 11 13  1  0
 13 14  1  0
 14 15  1  0
 15 16  1  0
 16 17  1  0
 17 18  1  0
 18 19  1  1
 18 20  1  0
 20 21  1  0
 21 22  1  0
 22 23  1  0
  7 24  1  0
 24 25  1  1
 24 26  1  0
 26 27  1  1
 26  1  1  0
 27 23  1  0
M  RAD  6   3   2   9   2  11   2  20   2  22   2  23   2
M  END
>  <fragInfo>  (1) 
1 2 3 4 5 6 7 8 9 10 11 12 13 14 15 16 17 18 19 20 21 22 23 24 25 26 27


>  <torsionInfo>  (1) 


>  <atomInfo>  (1) 
1  -0.1986404OA
2  -0.1958916OA
3  0.24585713C 
4  -0.3409122OA
5  0.07619211C 
6  -0.0368974C 
7  0.06470362C 
8  -0.3046592NA
9  0.02550155C 
10 -0.0041964C 
11 0.09716899C 
12 -0.3867304OA
13 0.00249339C 
14 0.05228988C 
15 -0.3551831OA
16 0.14951056C 
17 -0.3239567OA
18 0.18620295C 
19 -0.3656573OA
20 0.13990305C 
21 -0.3611043OA
22 0.11596633C 
23 0.11858666C 
24 0.12561350C 
25 -0.3859555OA
26 0.21915973C 
27 -0.3385495OA


$$$$
