
     RDKit          3D

 20 21  0  0  0  0  0  0  0  0999 V2000
    3.6919    3.1852    1.3581 Cl  0  0  0  0  0  0  0  0  0  0  0  0
    3.4180    1.4867    1.0556 C   0  0  0  0  0  0  0  0  0  0  0  0
    2.5359    1.0483    0.1773 C   0  0  0  0  0  0  0  0  0  0  0  0
    2.3548   -0.3991   -0.0290 C   0  0  0  0  0  0  0  0  0  0  0  0
    1.4901   -0.9017   -0.8914 C   0  0  0  0  0  0  0  0  0  0  0  0
    0.6028   -0.1568   -1.7523 N   0  0  0  0  0  0  0  0  0  0  0  0
   -0.6380   -0.6059   -2.1346 N   0  0  0  0  0  0  0  0  0  0  0  0
   -1.6717   -0.6921   -1.4081 C   0  0  0  0  0  0  0  0  0  0  0  0
   -1.7709   -0.3280    0.0131 C   0  0  1  0  0  0  0  0  0  0  0  0
   -1.6710    1.0596    0.2881 N   0  0  0  0  0  0  0  0  0  0  0  0
   -1.9933    1.9267   -0.8093 C   0  0  0  0  0  0  0  0  0  0  0  0
   -3.4473    2.0390   -1.0580 C   0  0  0  0  0  0  0  0  0  0  0  0
   -4.4294    1.6939   -0.2548 C   0  0  0  0  0  0  0  0  0  0  0  0
   -4.4086    0.1991    0.3611 S   0  0  0  0  0  0  0  0  0  0  0  0
   -2.9855   -0.9172    0.6637 C   0  0  2  0  0  0  0  0  0  0  0  0
   -2.7583   -0.9616    2.4216 Cl  0  0  0  0  0  0  0  0  0  0  0  0
    1.6128   -2.3746   -0.7984 C   0  0  0  0  0  0  0  0  0  0  0  0
    2.6552   -2.6135    0.2251 C   0  0  0  0  0  0  0  0  0  0  0  0
    3.0844   -1.4451    0.6708 C   0  0  0  0  0  0  0  0  0  0  0  0
    4.3280   -1.2431    1.9011 Cl  0  0  0  0  0  0  0  0  0  0  0  0
  1  2  1  0
  2  3  2  3
  3  4  1  0
  4  5  2  0
  5  6  1  0
  6  7  1  0
  7  8  2  3
  8  9  1  0
  9 10  1  6
 10 11  1  0
 11 12  1  0
 12 13  2  0
 13 14  2  0
 14 15  1  0
 15 16  1  1
  5 17  1  0
 17 18  1  0
 18 19  2  0
 19 20  1  0
 19  4  1  0
 15  9  1  0
M  END
>  <fragInfo>  (1) 
9 10 11 12 13 14 15 16
1 2 3
4 5 17 18 19 20
6
7 8


>  <torsionInfo>  (1) 
8 9 4 0
3 4 1 2
5 6 2 3
6 7 3 4


>  <atomInfo>  (1) 
1  -0.0929312Cl
2  0.00495549C 
3  -0.0403227C 
4  0.01482550C 
5  0.04610464C 
6  -0.2819130N 
7  -0.1867129NA
8  0.04429334C 
9  0.07302337C 
10 -0.3027786NA
11 0.02242365C 
12 -0.0193281C 
13 -0.0806116C 
14 -0.1966497S 
15 0.10801619C 
16 -0.1056093Cl
17 0.00951728C 
18 -0.0591679C 
19 0.04604311C 
20 -0.0839529Cl


$$$$
