
     RDKit          3D

 29 30  0  0  0  0  0  0  0  0999 V2000
   -0.3484   -0.5163    2.4089 O   0  0  0  0  0  0  0  0  0  0  0  0
   -0.2148    0.2411    1.4166 C   0  0  0  0  0  0  0  0  0  0  0  0
   -1.3472    0.7801    0.6231 C   0  0  1  0  0  0  0  0  0  0  0  0
   -1.1729    0.2997   -0.7997 C   0  0  0  0  0  0  0  0  0  0  0  0
   -2.2413    0.7362   -1.6984 C   0  0  0  0  0  0  0  0  0  0  0  0
   -2.2027    1.7526   -2.4820 C   0  0  0  0  0  0  0  0  0  0  0  0
   -3.1459    2.6160   -2.5346 C   0  0  0  0  0  0  0  0  0  0  0  0
   -3.9714    2.8362   -1.5698 C   0  0  0  0  0  0  0  0  0  0  0  0
   -4.0160    2.1018   -0.3642 N   0  0  0  0  0  0  0  0  0  0  0  0
   -4.7562    0.8644   -0.2143 C   0  0  1  0  0  0  0  0  0  0  0  0
   -5.7759    0.6740   -1.3053 C   0  0  0  0  0  0  0  0  0  0  0  0
   -3.7563   -0.2563   -0.1517 C   0  0  2  0  0  0  0  0  0  0  0  0
   -4.4864   -1.8376   -0.4650 Cl  0  0  0  0  0  0  0  0  0  0  0  0
   -2.8346   -0.1901    1.2703 S   0  0  0  0  0  0  0  0  0  0  0  0
   -2.7879   -1.0951    2.5004 N   0  0  0  0  0  0  0  0  0  0  0  0
   -3.4842    0.4740    2.7555 C   0  0  0  0  0  0  0  0  0  0  0  0
   -3.9330    0.8551    3.9032 C   0  0  0  0  0  0  0  0  0  0  0  0
    1.0896    0.6077    1.0245 N   0  0  0  0  0  0  0  0  0  0  0  0
    2.2011    0.1119    1.7596 C   0  0  0  0  0  0  0  0  0  0  0  0
    3.0930   -0.6160    1.1405 C   0  0  0  0  0  0  0  0  0  0  0  0
    2.9849   -0.9362   -0.2809 C   0  0  0  0  0  0  0  0  0  0  0  0
    3.8861   -1.6723   -0.9088 C   0  0  0  0  0  0  0  0  0  0  0  0
    4.9863   -2.1555   -0.1531 N   0  0  0  0  0  0  0  0  0  0  0  0
    5.4129   -1.5467    1.0538 C   0  0  0  0  0  0  0  0  0  0  0  0
    6.0182   -0.3815    1.0884 C   0  0  0  0  0  0  0  0  0  0  0  0
    6.3306    0.5194   -0.5610 Br  0  0  0  0  0  0  0  0  0  0  0  0
    3.7341   -1.9635   -2.3245 C   0  0  0  0  0  0  0  0  0  0  0  0
    4.6020   -2.6884   -2.9881 C   0  0  0  0  0  0  0  0  0  0  0  0
    6.1362   -3.4192   -2.1432 Br  0  0  0  0  0  0  0  0  0  0  0  0
  1  2  2  0
  3  2  1  1
  3  4  1  0
  4  5  1  0
  5  6  2  0
  6  7  2  0
  7  8  2  0
  8  9  1  0
  9 10  1  0
 10 11  1  6
 10 12  1  0
 12 13  1  1
 12 14  1  0
 14 15  2  0
 15 16  1  0
 16 17  2  0
  2 18  1  0
 18 19  1  0
 19 20  2  3
 20 21  1  0
 21 22  2  3
 22 23  1  0
 23 24  1  0
 24 25  2  3
 25 26  1  0
 22 27  1  0
 27 28  2  3
 28 29  1  0
 14  3  1  0
 16 14  1  0
M  END
>  <fragInfo>  (1) 
3 4 5 6 7 8 9 10 11 12 13 14 15 16 17
1 2 18
19 20
21 22
23
24 25 26
27 28 29


>  <torsionInfo>  (1) 
2 3 1 0
18 19 1 2
20 21 2 3
22 23 3 4
22 27 3 6
23 24 4 5


>  <atomInfo>  (1) 
1  -0.2734815OA
2  0.23646672C 
3  0.08661375C 
4  -0.0062233C 
5  -0.0322390C 
6  -0.0730559C 
7  -0.0530542C 
8  0.04849614C 
9  -0.3793560N 
10 0.04852759C 
11 -0.0425857C 
12 0.09673505C 
13 -0.1093285Cl
14 -0.1207422S 
15 -0.2355465NA
16 0.08769956C 
17 -0.0667149C 
18 -0.3317184N 
19 0.00382786C 
20 -0.0439896C 
21 -0.0371686C 
22 0.03851600C 
23 -0.3611458N 
24 0.00792557C 
25 -0.0028224C 
26 -0.0579071Br
27 -0.0316950C 
28 -0.0168247C 
29 -0.0594060Br


$$$$
