
     RDKit          3D

 27 26  0  0  0  0  0  0  0  0999 V2000
   -6.8734   -1.8189   -0.6899 C   0  0  0  0  0  0  0  0  0  0  0  0
   -7.2086   -0.4274   -0.1644 C   0  0  0  0  0  0  0  0  0  0  0  0
   -7.0263   -0.3725    1.3301 C   0  0  0  0  0  0  0  0  0  0  0  0
   -6.3617    0.5960   -0.8819 C   0  0  0  0  0  0  0  0  0  0  0  0
   -4.8892    0.3365   -0.6608 C   0  0  0  0  0  0  0  0  0  0  0  0
   -4.5979   -1.0457   -1.2033 C   0  0  0  0  0  0  0  0  0  0  0  0
   -3.1028   -1.3802   -1.0102 C   0  0  1  0  0  0  0  0  0  0  0  0
   -2.3198   -0.3555   -1.7549 C   0  0  0  0  0  0  0  0  0  0  0  0
   -2.9006   -1.4258    0.4698 C   0  0  0  0  0  3  0  0  0  0  0  0
   -3.1667   -0.1017    1.1100 C   0  0  0  0  0  0  0  0  0  0  0  0
   -2.1697    0.9653    0.8470 C   0  0  0  0  0  0  0  0  0  0  0  0
   -0.8298    0.6262    1.4079 C   0  0  1  0  0  0  0  0  0  0  0  0
   -0.3071   -0.6424    0.8184 C   0  0  0  0  0  0  0  0  0  0  0  0
    0.1464    1.7569    1.4134 C   0  0  0  0  0  0  0  0  0  0  0  0
    0.4075    2.2736    0.0076 C   0  0  2  0  0  0  0  0  0  0  0  0
   -0.9264    2.7441   -0.5337 C   0  0  0  0  0  2  0  0  0  0  0  0
    0.8939    1.1053   -0.8211 C   0  0  0  0  0  0  0  0  0  0  0  0
    2.1241    0.5091   -0.3023 C   0  0  0  0  0  0  0  0  0  0  0  0
    3.2322    0.4531   -1.0086 C   0  0  0  0  0  0  0  0  0  0  0  0
    3.2115    0.9863   -2.2938 O   0  0  0  0  0  0  0  0  0  0  0  0
    4.4142   -0.1460   -0.4462 C   0  0  1  0  0  0  0  0  0  0  0  0
    4.9635   -1.2053   -1.0522 O   0  0  0  0  0  0  0  0  0  0  0  0
    5.1857    0.6178    0.3685 O   0  0  0  0  0  0  0  0  0  0  0  0
    6.2342    0.0367    0.8481 O   0  0  0  0  0  0  0  0  0  0  0  0
    6.1152   -1.3514    0.9060 C   0  0  0  0  0  0  0  0  0  0  0  0
    7.3354   -2.0076    1.4627 C   0  0  0  0  0  3  0  0  0  0  0  0
    8.4163   -1.0110    1.8339 C   0  0  0  0  0  2  0  0  0  0  0  0
  1  2  1  0
  2  3  1  0
  2  4  1  0
  4  5  1  0
  5  6  1  0
  6  7  1  0
  7  8  1  1
  7  9  1  0
  9 10  1  0
 10 11  1  0
 11 12  1  0
 12 13  1  6
 12 14  1  0
 14 15  1  0
 15 16  1  6
 15 17  1  0
 17 18  1  0
 18 19  2  3
 19 20  1  0
 19 21  1  0
 21 22  1  6
 21 23  1  0
 23 24  1  0
 24 25  1  0
 25 26  1  0
 26 27  1  0
M  RAD  4   9   2  16   3  26   2  27   3
M  END
>  <fragInfo>  (1) 
1 2 3
4
5
6
7 8
9
10
11
12 13
14
15 16
17
18 19 20
21 22
23
24
25
26 27


>  <torsionInfo>  (1) 
2 4 0 1
4 5 1 2
5 6 2 3
6 7 3 4
7 9 4 5
9 10 5 6
10 11 6 7
11 12 7 8
12 14 8 9
14 15 9 10
15 17 10 11
17 18 11 12
19 21 12 13
21 23 13 14
23 24 14 15
24 25 15 16
25 26 16 17


>  <atomInfo>  (1) 
1  -0.0627736C 
2  -0.0471324C 
3  -0.0627736C 
4  -0.0509643C 
5  -0.0527983C 
6  -0.0504266C 
7  -0.0411603C 
8  -0.0622342C 
9  -0.0357404C 
10 -0.0496644C 
11 -0.0504164C 
12 -0.0439845C 
13 -0.0624989C 
14 -0.0472694C 
15 -0.0341577C 
16 -0.0314700C 
17 -0.0281278C 
18 -0.0410779C 
19 0.14718614C 
20 -0.5071346OA
21 0.24592256C 
22 -0.3597765OA
23 -0.1960942OA
24 -0.2332430OA
25 0.08580317C 
26 -0.0058168C 
27 -0.0289183C 


$$$$
