
     RDKit          3D

 29 30  0  0  0  0  0  0  0  0999 V2000
   -0.5112   -1.7940   -2.2084 O   0  0  0  0  0  0  0  0  0  0  0  0
   -0.7046   -0.5607   -2.0647 C   0  0  0  0  0  0  0  0  0  0  0  0
   -1.3378    0.1377   -3.0748 O   0  0  0  0  0  0  0  0  0  0  0  0
   -0.2670    0.1093   -0.8606 C   0  0  1  0  0  0  0  0  0  0  0  0
   -1.4633    0.8495   -0.2408 C   0  0  0  0  0  0  0  0  0  0  0  0
   -2.0961    1.9526   -0.1644 C   0  0  0  0  0  0  0  0  0  0  0  0
   -3.2057    2.5083    0.4613 C   0  0  0  0  0  0  0  0  0  0  0  0
   -3.1777    4.1973    1.0983 Cl  0  0  0  0  0  0  0  0  0  0  0  0
   -4.3542    1.9069    0.6578 C   0  0  0  0  0  0  0  0  0  0  0  0
   -5.4086    2.5910    1.3125 O   0  0  0  0  0  0  0  0  0  0  0  0
   -5.5043    2.6379    2.7154 C   0  0  0  0  0  0  0  0  0  0  0  0
   -4.6949    0.5249    0.2541 C   0  0  0  0  0  0  0  0  0  0  0  0
   -4.9148    0.4409   -1.2346 C   0  0  0  0  0  0  0  0  0  0  0  0
   -4.2754   -0.5894   -1.7972 C   0  0  0  0  0  0  0  0  0  0  0  0
   -4.4545   -0.7267   -3.2722 C   0  0  0  0  0  0  0  0  0  0  0  0
   -3.4756   -1.5092   -1.0608 C   0  0  0  0  0  0  0  0  0  0  0  0
   -2.5391   -1.4039   -0.2321 C   0  0  0  0  0  0  0  0  0  0  0  0
   -1.7615   -0.4019    0.4297 C   0  0  1  0  0  0  0  0  0  0  0  0
   -0.2673   -0.6572    0.3983 C   0  0  0  0  0  0  0  0  0  0  0  0
    0.5566   -1.2742    1.1628 C   0  0  0  0  0  0  0  0  0  0  0  0
    1.9742   -1.4236    0.9802 C   0  0  0  0  0  0  0  0  0  0  0  0
    2.7607   -2.0773    1.8162 C   0  0  0  0  0  0  0  0  0  0  0  0
    4.5171   -2.1921    1.4745 S   0  0  0  0  0  0  0  0  0  0  0  0
    5.3453   -0.9806    0.7513 C   0  0  0  0  0  0  0  0  0  0  0  0
    6.7595   -1.0854    0.4817 C   0  0  0  0  0  0  0  0  0  0  0  0
    7.4260   -0.1122   -0.0996 C   0  0  0  0  0  0  0  0  0  0  0  0
    6.6945    1.1325   -0.4888 C   0  0  0  0  0  0  0  0  0  0  0  0
    8.8824   -0.2472   -0.3653 C   0  0  0  0  0  0  0  0  0  0  0  0
    9.4974   -1.9534    0.2549 Br  0  0  0  0  0  0  0  0  0  0  0  0
  1  2  2  0
  2  3  1  0
  4  2  1  6
  4  5  1  0
  5  6  2  3
  6  7  1  0
  7  8  1  0
  7  9  2  3
  9 10  1  0
 10 11  1  0
  9 12  1  0
 12 13  1  0
 13 14  2  3
 14 15  1  0
 14 16  1  0
 16 17  2  3
 18 17  1  6
 18 19  1  0
 19 20  2  3
 20 21  1  0
 21 22  2  3
 22 23  1  0
 23 24  2  3
 24 25  1  0
 25 26  2  3
 26 27  1  0
 26 28  1  0
 28 29  1  0
 19  4  1  0
 18  5  1  0
M  END
>  <fragInfo>  (1) 
4 5 6 7 8 9 12 13 14 15 16 17 18 19 20
1 2 3
10 11
21 22
23 24
25 26 27
28 29


>  <torsionInfo>  (1) 
2 4 1 0
9 10 0 2
20 21 0 3
22 23 3 4
24 25 4 5
26 28 5 6


>  <atomInfo>  (1) 
1  -0.2513652OA
2  0.31438785C 
3  -0.4805494OA
4  0.10107524C 
5  -0.0393276C 
6  -0.0387613C 
7  0.07859897C 
8  -0.0806481Cl
9  0.11783172C 
10 -0.4992211OA
11 0.07710963C 
12 0.02511393C 
13 -0.0740400C 
14 -0.0549594C 
15 -0.0400882C 
16 -0.0627113C 
17 -0.0729586C 
18 0.02203653C 
19 -0.0409022C 
20 -0.0601961C 
21 -0.0536407C 
22 -0.0255461C 
23 -0.2350518S 
24 -0.0255710C 
25 -0.0539000C 
26 -0.0620034C 
27 -0.0427527C 
28 0.02419684C 
29 -0.0879946Br


$$$$
