
     RDKit          3D

 29 29  0  0  0  0  0  0  0  0999 V2000
   -8.3420    1.5257    1.3723 O   0  0  0  0  0  0  0  0  0  0  0  0
   -8.8644    0.3879    1.4401 C   0  0  0  0  0  0  0  0  0  0  0  0
  -10.0521    0.2120    2.0964 O   0  0  0  0  0  0  0  0  0  0  0  0
   -8.2003   -0.7527    0.8148 C   0  0  0  0  0  0  0  0  0  0  0  0
   -7.0462   -0.6156    0.1699 C   0  0  0  0  0  0  0  0  0  0  0  0
   -6.4697   -1.8061   -0.4146 C   0  0  0  0  0  0  0  0  0  0  0  0
   -5.3518   -1.8669   -1.0796 C   0  0  0  0  0  0  0  0  0  0  0  0
   -4.4982   -0.7104   -1.3367 C   0  0  0  0  0  0  0  0  0  0  0  0
   -3.3835   -0.7804   -2.0017 C   0  0  0  0  0  0  0  0  0  0  0  0
   -2.5542    0.3107   -2.2583 N   0  0  0  0  0  0  0  0  0  0  0  0
   -1.2778    0.3357   -1.9916 C   0  0  0  0  0  0  0  0  0  0  0  0
   -0.4736    1.4073   -2.2458 O   0  0  0  0  0  0  0  0  0  0  0  0
    0.5287    1.8642   -1.4278 N   0  0  0  0  0  0  0  0  0  0  0  0
    0.5211    1.2695   -0.1315 C   0  0  0  0  0  0  0  0  0  0  0  0
   -0.6835   -0.8526   -1.3877 C   0  0  0  0  0  0  0  0  0  0  0  0
    0.5526   -1.2483   -1.6397 C   0  0  0  0  0  0  0  0  0  0  0  0
    1.4442   -0.5415   -2.5422 C   0  0  0  0  0  0  0  0  0  0  0  0
    2.4128    0.2030   -2.0686 C   0  0  0  0  0  0  0  0  0  0  0  0
    2.7202    0.4196   -0.6845 C   0  0  0  0  0  0  0  0  0  0  0  0
    1.9066    0.8962    0.2270 C   0  0  0  0  0  0  0  0  0  0  0  0
    2.3411    1.0732    1.6213 C   0  0  0  0  0  0  0  0  0  0  0  0
    3.7350    0.6676    1.8521 C   0  0  0  0  0  0  0  0  0  0  0  0
    4.4783    0.2013    0.8859 C   0  0  0  0  0  0  0  0  0  0  0  0
    5.8410   -0.1825    1.1668 C   0  0  0  0  0  0  0  0  0  0  0  0
    6.6763   -0.6595    0.2863 C   0  0  0  0  0  0  0  0  0  0  0  0
    8.0227   -1.0186    0.6517 C   0  0  0  0  0  0  0  0  0  0  0  0
    8.5759   -0.4891    1.7178 C   0  0  0  0  0  0  0  0  0  0  0  0
    9.1322   -0.1197    2.8367 C   0  0  0  0  0  0  0  0  0  0  0  0
    8.3087   -0.1337    4.0710 C   0  0  0  0  0  0  0  0  0  0  0  0
  1  2  2  0
  2  3  1  0
  2  4  1  0
  4  5  2  3
  5  6  1  0
  6  7  2  3
  7  8  1  0
  8  9  2  3
  9 10  1  0
 10 11  2  3
 11 12  1  0
 12 13  1  0
 13 14  1  0
 11 15  1  0
 15 16  2  3
 16 17  1  0
 17 18  2  3
 18 19  1  0
 19 20  2  3
 20 21  1  0
 21 22  1  0
 22 23  2  3
 23 24  1  0
 24 25  2  3
 25 26  1  0
 26 27  2  0
 27 28  2  0
 28 29  1  0
 20 14  1  0
M  END
>  <fragInfo>  (1) 
10 11 12 13 14 15 16 17 18 19 20
1 2 3
4 5
6 7
8 9
21
22 23
24 25
26 27 28 29


>  <torsionInfo>  (1) 
9 10 4 0
20 21 0 5
2 4 1 2
5 6 2 3
7 8 3 4
21 22 5 6
23 24 6 7
25 26 7 8


>  <atomInfo>  (1) 
1  -0.2471139OA
2  0.32779940C 
3  -0.4780738OA
4  0.02305830C 
5  -0.0550524C 
6  -0.0619538C 
7  -0.0607321C 
8  -0.0437223C 
9  0.03090782C 
10 -0.2203104NA
11 0.23722215C 
12 -0.3881120OA
13 -0.1506620NA
14 0.05335936C 
15 0.00245355C 
16 -0.0568193C 
17 -0.0620728C 
18 -0.0622484C 
19 -0.0613465C 
20 -0.0493010C 
21 -0.0118611C 
22 -0.0804082C 
23 -0.0659309C 
24 -0.0619598C 
25 -0.0545447C 
26 -0.0203296C 
27 -0.1254943C 
28 -0.0454535C 
29 -0.0393212C 


$$$$
