
     RDKit          3D

 41 40  0  0  0  0  0  0  0  0999 V2000
  -10.0283    1.4919    0.5199 C   0  0  0  0  0  0  0  0  0  0  0  0
  -10.1746    0.0123    0.2875 C   0  0  0  0  0  0  0  0  0  0  0  0
   -8.8586   -0.4838   -0.2824 C   0  0  0  0  0  0  0  0  0  0  0  0
  -10.4949   -0.7148    1.5726 C   0  0  0  0  0  0  0  0  0  0  0  0
   -9.2316   -0.9201    2.3643 C   0  0  0  0  0  0  0  0  0  0  0  0
   -8.8166    0.2978    3.1154 C   0  0  0  0  0  0  0  0  0  0  0  0
   -7.4980    0.7791    2.5953 C   0  0  1  0  0  0  0  0  0  0  0  0
   -6.8975    1.8518    3.4681 C   0  0  0  0  0  0  0  0  0  0  0  0
   -6.5028   -0.3353    2.4486 C   0  0  0  0  0  3  0  0  0  0  0  0
   -6.8083   -1.1588    1.2097 C   0  0  0  0  0  0  0  0  0  0  0  0
   -7.4141   -0.2121    0.1908 C   0  0  0  0  0  0  0  0  0  0  0  0
   -6.5899   -0.1955   -1.0510 C   0  0  0  0  0  3  0  0  0  0  0  0
   -5.2340    0.3966   -0.8193 C   0  0  1  0  0  0  0  0  0  0  0  0
   -5.2813    1.5883    0.1275 C   0  0  0  0  0  0  0  0  0  0  0  0
   -4.2094   -0.6262   -0.3916 C   0  0  0  0  0  0  0  0  0  0  0  0
   -2.9122   -0.2376   -1.0605 C   0  0  1  0  0  0  0  0  0  0  0  0
   -2.6639    1.2236   -0.8303 C   0  0  0  0  0  0  0  0  0  0  0  0
   -1.7423   -1.1083   -0.6565 C   0  0  1  0  0  0  0  0  0  0  0  0
   -1.2120   -1.8853   -1.8080 C   0  0  0  0  0  0  0  0  0  0  0  0
   -0.7179   -0.3688    0.1568 C   0  0  0  0  0  0  0  0  0  0  0  0
   -0.4668    0.9119   -0.3046 O   0  0  0  0  0  0  0  0  0  0  0  0
    0.5860    1.0356   -1.1690 C   0  0  0  0  0  0  0  0  0  0  0  0
    1.2023   -0.3251   -1.3236 C   0  0  0  0  0  3  0  0  0  0  0  0
    1.9443   -0.6674   -0.1283 N   0  0  0  0  0  3  0  0  0  0  0  0
    2.2906    0.4933    0.6610 C   0  0  0  0  0  2  0  0  0  0  0  0
    3.0726   -1.3309   -0.4767 O   0  0  0  0  0  0  0  0  0  0  0  0
    2.9568   -1.7594   -1.8006 C   0  0  0  0  0  3  0  0  0  0  0  0
    4.0934   -1.2552   -2.6598 C   0  0  0  0  0  0  0  0  0  0  0  0
    4.1734    0.1125   -2.6254 O   0  0  0  0  0  0  0  0  0  0  0  0
    4.8209    0.5504   -1.4850 N   0  0  0  0  0  3  0  0  0  0  0  0
    5.6614   -0.4834   -0.9399 C   0  0  0  0  0  2  0  0  0  0  0  0
    5.3349    1.7579   -2.0571 C   0  0  0  0  0  3  0  0  0  0  0  0
    7.2328    0.9555   -2.1238 N   0  0  0  0  0  4  0  0  0  0  0  0
    8.1239    0.5661   -2.1568 C   0  0  0  0  0  0  0  0  0  0  0  0
    9.0936    0.1312   -2.2024 C   0  0  0  0  0  0  0  0  0  0  0  0
    9.8596    0.7089   -0.7799 C   0  0  0  0  0  0  0  0  0  0  0  0
   10.0342   -0.2677    0.3384 C   0  0  0  0  0  0  0  0  0  0  0  0
   11.4301   -0.0336    0.9288 C   0  0  0  0  0  0  0  0  0  0  0  0
   11.5155    0.6750    2.1873 C   0  0  0  0  0  3  0  0  0  0  0  0
   10.5668   -0.2333    3.0984 N   0  0  0  0  0  4  0  0  0  0  0  0
    9.7620   -1.0139    3.8621 C   0  0  0  0  0  0  0  0  0  0  0  0
  1  2  1  0
  2  3  1  0
  2  4  1  0
  4  5  1  0
  5  6  1  0
  6  7  1  0
  7  8  1  1
  7  9  1  0
  9 10  1  0
 10 11  1  0
 11 12  1  0
 12 13  1  0
 13 14  1  1
 13 15  1  0
 15 16  1  0
 16 17  1  1
 16 18  1  0
 18 19  1  6
 18 20  1  0
 20 21  1  0
 21 22  1  0
 22 23  1  0
 23 24  1  0
 24 25  1  0
 24 26  1  0
 26 27  1  0
 27 28  1  0
 28 29  1  0
 29 30  1  0
 30 31  1  0
 30 32  1  0
 32 33  1  0
 33 34  3  0
 34 35  1  0
 35 36  1  0
 36 37  1  0
 37 38  1  0
 38 39  1  0
 39 40  1  0
 40 41  3  0
M  RAD  8   9   2  12   2  23   2  24   2  25   3  27   2  30   2  31   3
M  CHG  4  24   1  30   1  33   1  40   1
M  RAD  2  32   2  39   2
M  END
>  <fragInfo>  (1) 
32 33 34 35
1 2 3
4
5
6
7 8
9
10
11
12
13 14
15
16 17
18 19
20
21
22
23
24 25
26
27
28
29
30 31
36
37
38
39 40 41


>  <torsionInfo>  (1) 
30 32 23 0
35 36 0 24
2 4 1 2
4 5 2 3
5 6 3 4
6 7 4 5
7 9 5 6
9 10 6 7
10 11 7 8
11 12 8 9
12 13 9 10
13 15 10 11
15 16 11 12
16 18 12 13
18 20 13 14
20 21 14 15
21 22 15 16
22 23 16 17
23 24 17 18
24 26 18 19
26 27 19 20
27 28 20 21
28 29 21 22
29 30 22 23
36 37 24 25
37 38 25 26
38 39 26 27


>  <atomInfo>  (1) 
1  -0.0627736C 
2  -0.0471324C 
3  -0.0627736C 
4  -0.0509643C 
5  -0.0527983C 
6  -0.0504266C 
7  -0.0411603C 
8  -0.0622342C 
9  -0.0357399C 
10 -0.0496341C 
11 -0.0496339C 
12 -0.0357296C 
13 -0.0408957C 
14 -0.0622240C 
15 -0.0475034C 
16 -0.0392409C 
17 -0.0621596C 
18 -0.0180942C 
19 -0.0600508C 
20 0.04970355C 
21 -0.3743613OA
22 0.11329495C 
23 0.25451173C 
24 0.02301061N 
25 0.30105050C 
26 -0.1381595OA
27 0.18788621C 
28 0.14881019C 
29 -0.1369457OA
30 0.10554061N 
31 0.31025442C 
32 0.60454708C 
33 0.01002913N 
34 0.28216034C 
35 0.08171663C 
36 -0.0356643C 
37 -0.0442496C 
38 0.03562200C 
39 0.34871284C 
40 -0.0746787N 
41 0.25866707C 


$$$$
