
     RDKit          2D

 20 21  0  0  0  0  0  0  0  0999 V2000
   -3.0000   -2.5981    0.0000 C   0  0  0  0  0  0  0  0  0  0  0  0
   -1.5000   -2.5981    0.0000 O   0  0  0  0  0  0  0  0  0  0  0  0
   -0.7500   -1.2990    0.0000 C   0  0  0  0  0  0  0  0  0  0  0  0
    0.7500   -1.2990    0.0000 C   0  0  0  0  0  0  0  0  0  0  0  0
    1.5000    0.0000    0.0000 C   0  0  0  0  0  0  0  0  0  0  0  0
    0.7500    1.2990    0.0000 C   0  0  0  0  0  0  0  0  0  0  0  0
   -0.7500    1.2990    0.0000 C   0  0  0  0  0  0  0  0  0  0  0  0
   -1.5000    0.0000    0.0000 C   0  0  0  0  0  0  0  0  0  0  0  0
   -0.0000   -0.0000    0.0000 C   0  0  0  0  0  0  0  0  0  0  0  0
    1.4095    0.5130    0.0000 C   0  0  0  0  0  0  0  0  0  0  0  0
    2.5586   -0.4512    0.0000 O   0  0  0  0  0  0  0  0  0  0  0  0
   -0.2605    1.4772    0.0000 N   0  0  0  0  0  0  0  0  0  0  0  0
   -1.6700    1.9902    0.0000 C   0  0  0  0  0  0  0  0  0  0  0  0
   -1.9305    3.4675    0.0000 C   0  0  0  0  0  0  0  0  0  0  0  0
   -3.3400    3.9805    0.0000 C   0  0  0  0  0  0  0  0  0  0  0  0
   -0.7814    4.4316    0.0000 C   0  0  0  0  0  0  0  0  0  0  0  0
    0.6281    3.9186    0.0000 C   0  0  0  0  0  0  0  0  0  0  0  0
    1.7772    4.8828    0.0000 C   0  0  0  0  0  0  0  0  0  0  0  0
    3.1867    4.3698    0.0000 C   0  0  0  0  0  0  0  0  0  0  0  0
   -1.0419    5.9088    0.0000 C   0  0  0  0  0  0  0  0  0  0  0  0
  1  2  1  0
  2  3  1  0
  3  4  2  0
  4  5  1  0
  5  6  2  0
  6  7  1  0
  7  8  2  0
  8  9  1  0
  9 10  1  0
 10 11  2  0
  9 12  1  0
 12 13  1  0
 13 14  1  0
 14 15  1  0
 14 16  1  0
 16 17  1  0
 17 18  2  3
 18 19  1  0
 16 20  1  0
  8  3  1  0
  9  4  1  0
M  END
>  <fragInfo>  (1) 
3 4 5 6 7 8 9
1 2
10 11
12
13
14 15
16 20
17 18 19


>  <torsionInfo>  (1) 
2 3 1 0
9 10 0 2
9 12 0 3
12 13 3 4
13 14 4 5
14 16 5 6
16 17 6 7


>  <atomInfo>  (1) 
1  0.07754267C 
2  -0.4959820OA
3  0.13009074A 
4  0.02642887A 
5  -0.0526285A 
6  -0.0612555A 
7  -0.0526285A 
8  0.02642887A 
9  0.13263029C 
10 0.14898034C 
11 -0.3005097OA
12 -0.2972512NA
13 -0.0002200C 
14 -0.0256079C 
15 -0.0607395C 
16 -0.0224213C 
17 -0.0856596C 
18 -0.0913843C 
19 -0.0469811C 
20 -0.0587056C 


$$$$
