
     RDKit          3D

 32 32  0  0  0  0  0  0  0  0999 V2000
    9.0667    0.6313    2.0264 C   0  0  0  0  0  0  0  0  0  0  0  0
    8.2490   -0.4982    1.4820 C   0  0  0  0  0  0  0  0  0  0  0  0
    9.1373   -1.5178    0.8094 C   0  0  0  0  0  0  0  0  0  0  0  0
    7.1357   -0.0651    0.5758 C   0  0  0  0  0  0  0  0  0  0  0  0
    6.1657    0.8438    1.2849 C   0  0  0  0  0  0  0  0  0  0  0  0
    5.0469    1.2868    0.3959 C   0  0  0  0  0  0  0  0  0  0  0  0
    4.2293    0.1421   -0.1385 C   0  0  1  0  0  0  0  0  0  0  0  0
    5.0507   -0.8287   -0.9601 C   0  0  0  0  0  0  0  0  0  0  0  0
    3.5488   -0.5567    1.0319 C   0  0  0  0  0  3  0  0  0  0  0  0
    2.6668    0.4681    1.7146 C   0  0  0  0  0  0  0  0  0  0  0  0
    1.6258    1.0143    0.7848 C   0  0  0  0  0  0  0  0  0  0  0  0
    0.7371   -0.0859    0.2779 C   0  0  2  0  0  0  0  0  0  0  0  0
    1.6254   -1.0789   -0.4597 C   0  0  0  0  0  0  0  0  0  0  0  0
   -0.2912    0.4802   -0.6723 C   0  0  0  0  0  3  0  0  0  0  0  0
   -1.2055   -0.5789   -1.2081 C   0  0  1  0  0  0  0  0  0  0  0  0
   -1.9418   -1.2499   -0.0939 C   0  0  1  0  0  0  0  0  0  0  0  0
   -2.0762   -2.6646   -0.3651 N   0  0  0  0  0  1  0  0  0  0  0  0
   -1.3346   -0.9516    1.1594 N   0  0  0  0  0  2  0  0  0  0  0  0
   -2.1868   -1.0902    2.2944 C   0  0  0  0  0  0  0  0  0  0  0  0
   -3.6421   -1.1326    1.9711 C   0  0  0  0  0  0  0  0  0  0  0  0
   -4.3302   -0.0221    2.7452 C   0  0  0  0  0  0  0  0  0  0  0  0
   -4.8132    1.0510    1.8035 C   0  0  0  0  0  0  0  0  0  0  0  0
   -5.8462    0.5630    1.0083 O   0  0  0  0  0  0  0  0  0  0  0  0
   -6.0318    1.4513   -0.0677 C   0  0  0  0  0  0  0  0  0  0  0  0
   -6.3568    0.6752   -1.3394 C   0  0  0  0  0  0  0  0  0  0  0  0
   -5.3833    1.1172   -2.4041 C   0  0  0  0  0  0  0  0  0  0  0  0
   -4.5195    0.0077   -2.9167 C   0  0  1  0  0  0  0  0  0  0  0  0
   -3.8442    0.4613   -4.0448 O   0  0  0  0  0  0  0  0  0  0  0  0
   -3.5711   -0.5438   -1.8953 C   0  0  0  0  0  0  0  0  0  0  0  0
   -2.1734    0.0139   -2.1815 C   0  0  1  0  0  0  0  0  0  0  0  0
   -2.1668    1.5184   -2.0078 C   0  0  0  0  0  3  0  0  0  0  0  0
   -2.5705    1.9319   -0.6107 C   0  0  0  0  0  2  0  0  0  0  0  0
  1  2  1  0
  2  3  1  0
  2  4  1  0
  4  5  1  0
  5  6  1  0
  6  7  1  0
  7  8  1  1
  7  9  1  0
  9 10  1  0
 10 11  1  0
 11 12  1  0
 12 13  1  6
 12 14  1  0
 15 14  1  1
 15 16  1  0
 16 17  1  6
 16 18  1  0
 18 19  1  0
 19 20  1  0
 20 21  1  0
 21 22  1  0
 22 23  1  0
 23 24  1  0
 24 25  1  0
 25 26  1  0
 26 27  1  0
 27 28  1  6
 27 29  1  0
 29 30  1  0
 30 31  1  1
 31 32  1  0
 30 15  1  0
M  CHG  2  17   1  18  -1
M  RAD  5   9   2  14   2  17   2  31   2  32   3
M  END
>  <fragInfo>  (1) 
15 16 17 18 19 20 21 22 23 24 25 26 27 28 29 30
1 2 3
4
5
6
7 8
9
10
11
12 13
14
31 32


>  <torsionInfo>  (1) 
14 15 10 0
30 31 0 11
2 4 1 2
4 5 2 3
5 6 3 4
6 7 4 5
7 9 5 6
9 10 6 7
10 11 7 8
11 12 8 9
12 14 9 10


>  <atomInfo>  (1) 
1  -0.0627736C 
2  -0.0471324C 
3  -0.0627736C 
4  -0.0509643C 
5  -0.0527983C 
6  -0.0504266C 
7  -0.0411603C 
8  -0.0622342C 
9  -0.0357403C 
10 -0.0496540C 
11 -0.0501386C 
12 -0.0406905C 
13 -0.0622205C 
14 -0.0276509C 
15 0.01706090C 
16 0.20524551C 
17 0.39713556N 
18 -0.5928546NA
19 -0.1445513C 
20 -0.0699402C 
21 -0.0312377C 
22 0.04649166C 
23 -0.3814518OA
24 0.04664882C 
25 -0.0271476C 
26 -0.0248082C 
27 0.05435740C 
28 -0.3931185OA
29 -0.0234259C 
30 -0.0278966C 
31 -0.0312222C 
32 -0.0311931C 


$$$$
