
     RDKit          3D

 25 25  0  0  0  0  0  0  0  0999 V2000
    6.0686    0.2199    1.4466 C   0  0  0  0  0  0  0  0  0  0  0  0
    6.4523   -0.5657    0.3644 O   0  0  0  0  0  0  0  0  0  0  0  0
    5.3804   -0.5984   -0.5309 C   0  0  0  0  0  3  0  0  0  0  0  0
    5.0904    0.7021   -0.9486 O   0  0  0  0  0  0  0  0  0  0  0  0
    4.5594    0.5899   -2.2422 C   0  0  2  0  0  0  0  0  0  0  0  0
    4.2296    1.9713   -2.7380 C   0  0  0  0  0  0  0  0  0  0  0  0
    3.3672   -0.3060   -2.2695 C   0  0  0  0  0  0  0  0  0  0  0  0
    2.5033   -0.3104   -1.2516 C   0  0  0  0  0  0  0  0  0  0  0  0
    1.3373   -1.2368   -1.3593 C   0  0  0  0  0  3  0  0  0  0  0  0
    0.1625   -0.4877   -1.9073 C   0  0  0  0  0  3  0  0  0  0  0  0
   -0.8339   -0.1221   -0.8636 C   0  0  0  0  0  0  0  0  0  0  0  0
   -1.5810   -1.2324   -0.2119 C   0  0  0  0  0  0  0  0  0  0  0  0
   -1.0823    1.1025   -0.4965 C   0  0  0  0  0  0  0  0  0  0  0  0
   -2.2033    1.6369    0.6893 S   0  0  0  0  0  3  0  0  0  0  0  0
   -1.4748    2.6103    1.9725 C   0  0  0  0  0  2  0  0  0  0  0  0
   -3.5679    2.3570    0.0452 O   0  0  0  0  0  0  0  0  0  0  0  0
   -4.5461    1.4307   -0.3015 C   0  0  0  0  0  3  0  0  0  0  0  0
   -3.9030    0.3485   -0.8971 O   0  0  0  0  0  0  0  0  0  0  0  0
   -4.4611   -0.8115   -0.3866 C   0  0  0  0  0  3  0  0  0  0  0  0
   -3.8078   -1.2477    0.8853 C   0  0  2  0  0  0  0  0  0  0  0  0
   -4.5322   -0.8224    1.9700 O   0  0  0  0  0  0  0  0  0  0  0  0
   -2.3688   -0.7914    0.9784 C   0  0  1  0  0  0  0  0  0  0  0  0
   -1.7759   -1.3995    2.2484 C   0  0  2  0  0  0  0  0  0  0  0  0
   -2.6237   -0.9089    3.4034 C   0  0  0  0  0  0  0  0  0  0  0  0
   -0.3890   -0.8181    2.4013 C   0  0  0  0  0  2  0  0  0  0  0  0
  1  2  1  0
  2  3  1  0
  3  4  1  0
  4  5  1  0
  5  6  1  1
  5  7  1  0
  7  8  2  3
  8  9  1  0
  9 10  1  0
 10 11  1  0
 11 12  1  0
 11 13  2  3
 13 14  1  0
 14 15  1  1
 14 16  1  0
 16 17  1  0
 17 18  1  0
 18 19  1  0
 19 20  1  0
 20 21  1  1
 20 22  1  0
 22 23  1  0
 23 24  1  1
 23 25  1  0
 22 12  1  6
M  CHG  1  14   1
M  RAD  7   3   2   9   2  10   2  15   3  17   2  19   2  25   3
M  END
>  <fragInfo>  (1) 
11 12 13 14 15 16 17 18 19 20 21 22
1 2
3
4
5 6
7 8
9
10
23 24 25


>  <torsionInfo>  (1) 
10 11 7 0
22 23 0 8
2 3 1 2
3 4 2 3
4 5 3 4
5 7 4 5
8 9 5 6
9 10 6 7


>  <atomInfo>  (1) 
1  0.03885669C 
2  -0.3513230OA
3  0.20924235C 
4  -0.3407227OA
5  0.07613652C 
6  -0.0348838C 
7  -0.0597658C 
8  -0.0816357C 
9  -0.0090120C 
10 -0.0013883C 
11 -0.0147362C 
12 -0.0212985C 
13 0.15488418C 
14 0.19517823S 
15 0.26740913C 
16 -0.1305859OA
17 0.27015553C 
18 -0.3350314OA
19 0.11598485C 
20 0.08632604C 
21 -0.3899988OA
22 -0.0058216C 
23 -0.0351439C 
24 -0.0618490C 
25 -0.0316870C 


$$$$
