
     RDKit          3D

 68 77  0  0  0  0  0  0  0  0999 V2000
    1.0937   -4.2731    1.0111 C   0  0  2  0  0  0  0  0  0  0  0  0
    0.7790   -2.8421    0.9911 C   0  0  2  0  0  0  0  0  0  0  0  0
    0.1965   -2.4547    2.3578 C   0  0  0  0  0  0  0  0  0  0  0  0
   -0.0389   -2.3480   -0.1426 C   0  0  0  0  0  0  0  0  0  0  0  0
    0.7753   -2.0202   -1.3765 C   0  0  2  0  0  0  0  0  0  0  0  0
    0.0481   -1.0053   -2.2670 C   0  0  2  0  0  0  0  0  0  0  0  0
    1.0794    0.0991   -2.5348 C   0  0  1  0  0  0  0  0  0  0  0  0
    0.5885    0.8911   -3.7436 C   0  0  0  0  0  0  0  0  0  0  0  0
    1.0645    1.0677   -1.3530 C   0  0  0  0  0  3  0  0  0  0  0  0
    2.3995    1.6902   -1.1110 C   0  0  0  0  0  0  0  0  0  0  0  0
    3.2927    1.6985   -2.3307 C   0  0  1  0  0  0  0  0  0  0  0  0
    3.4903    3.0813   -2.8229 C   0  0  0  0  0  0  0  0  0  0  0  0
    2.6132    4.0541   -2.7222 C   0  0  0  0  0  3  0  0  0  0  0  0
    1.2912    3.8542   -2.0822 C   0  0  0  0  0  0  0  0  0  0  0  0
    0.6876    5.1469   -1.6238 C   0  0  1  0  0  0  0  0  0  0  0  0
   -0.2930    5.6836   -2.5275 N   0  0  0  0  0  1  0  0  0  0  0  0
    0.2650    5.1517   -0.1905 C   0  0  0  0  0  0  0  0  0  0  0  0
   -0.7819    4.1128    0.1337 C   0  0  0  0  0  0  0  0  0  0  0  0
   -0.9492    4.0775    1.6371 C   0  0  1  0  0  0  0  0  0  0  0  0
   -0.9469    5.4814    2.2060 C   0  0  0  0  0  0  0  0  0  0  0  0
   -2.1912    3.3142    2.0489 C   0  0  1  0  0  0  0  0  0  0  0  0
   -3.3833    4.0922    1.5997 C   0  0  0  0  0  0  0  0  0  0  0  0
   -3.3900    4.4396    0.1483 C   0  0  0  0  0  0  0  0  0  0  0  0
   -4.8405    4.7660   -0.2302 C   0  0  0  0  0  0  0  0  0  0  0  0
   -5.3467    3.6096   -0.9924 C   0  0  0  0  0  0  0  0  0  0  0  0
   -4.8964    2.3847   -0.7300 C   0  0  0  0  0  0  0  0  0  0  0  0
   -5.4456    0.9385   -1.5923 S   0  0  0  0  0  0  0  0  0  0  0  0
   -3.9807    0.1015   -2.2775 C   0  0  0  0  0  0  0  0  0  0  0  0
   -3.7573   -1.1654   -1.5209 C   0  0  1  0  0  0  0  0  0  0  0  0
   -2.3816   -1.3726   -1.0599 C   0  0  0  0  0  0  0  0  0  0  0  0
   -1.2146   -0.2420   -1.1967 S   0  0  0  0  0  0  0  0  0  0  0  0
   -0.3214   -0.0443    0.6942 S   0  0  0  0  0  0  0  0  0  0  0  0
   -0.6826    1.4870    1.5068 C   0  0  2  0  0  0  0  0  0  0  0  0
   -1.5869    0.4888    3.2121 S   0  0  2  0  0  0  0  0  0  0  0  0
   -0.3906   -0.3588    3.6158 C   0  0  0  0  0  0  0  0  0  0  0  0
    0.5971   -1.0433    2.7333 C   0  0  1  0  0  0  0  0  0  0  0  0
    1.9204   -1.1307    3.4641 C   0  0  0  0  0  0  0  0  0  0  0  0
    2.9625   -0.2248    2.8486 C   0  0  0  0  0  0  0  0  0  0  0  0
    4.3177   -0.7282    3.2441 C   0  0  2  0  0  0  0  0  0  0  0  0
    4.8101   -0.1445    4.5352 C   0  0  0  0  0  0  0  0  0  0  0  0
    5.3180   -0.6873    2.1354 C   0  0  0  0  0  0  0  0  0  0  0  0
    6.1364    0.5641    2.0877 C   0  0  2  0  0  0  0  0  0  0  0  0
    5.8248    1.5398    3.1820 C   0  0  0  0  0  0  0  0  0  0  0  0
    6.1402    1.3225    0.4454 S   0  0  0  0  0  0  0  0  0  0  0  0
    4.6559    0.7836   -0.4343 C   0  0  0  0  0  0  0  0  0  0  0  0
    4.6705    1.1954   -1.8910 C   0  0  1  0  0  0  0  0  0  0  0  0
    5.1137    0.0102   -2.6948 C   0  0  0  0  0  0  0  0  0  0  0  0
    4.1949   -0.3423   -3.8217 C   0  0  0  0  0  0  0  0  0  0  0  0
    3.7202   -1.7762   -3.7284 C   0  0  0  0  0  3  0  0  0  0  0  0
    3.2815   -2.1166   -2.3134 C   0  0  0  0  0  0  0  0  0  0  0  0
    2.5991   -3.4575   -2.3139 C   0  0  0  0  0  0  0  0  0  0  0  0
    1.1260   -3.2589   -2.1386 C   0  0  1  0  0  0  0  0  0  0  0  0
    0.5484   -4.4414   -1.4366 C   0  0  0  0  0  3  0  0  0  0  0  0
    1.3463   -4.9400   -0.2833 C   0  0  0  0  0  3  0  0  0  0  0  0
    0.6401   -6.1766    0.2992 C   0  0  0  0  0  0  0  0  0  0  0  0
   -0.1339   -5.1762    1.1712 C   0  0  2  0  0  0  0  0  0  0  0  0
   -1.2384   -4.5256    0.3659 C   0  0  0  0  0  0  0  0  0  0  0  0
   -2.4067   -5.4251    0.1287 C   0  0  0  0  0  0  0  0  0  0  0  0
   -3.6634   -4.6604    0.4898 C   0  0  1  0  0  0  0  0  0  0  0  0
   -3.3145   -3.7577    1.6547 C   0  0  0  0  0  0  0  0  0  0  0  0
   -4.0680   -3.7472   -0.6698 C   0  0  0  0  0  0  0  0  0  0  0  0
   -5.1549   -2.8128   -0.2559 C   0  0  0  0  0  0  0  0  0  0  0  0
   -4.7175   -1.3474   -0.3612 C   0  0  1  0  0  0  0  0  0  0  0  0
   -4.0984   -0.8849    0.9408 C   0  0  0  0  0  0  0  0  0  0  0  0
   -4.9866    0.0312    1.7227 C   0  0  0  0  0  0  0  0  0  0  0  0
   -4.1590    1.0135    2.5406 C   0  0  0  0  0  0  0  0  0  0  0  0
   -2.7241    0.8235    2.1919 C   0  0  1  0  0  0  0  0  0  0  0  0
   -2.1032    1.9363    1.4273 C   0  0  1  0  0  0  0  0  0  0  0  0
  1  2  1  0
  2  3  1  1
  2  4  1  0
  5  4  1  1
  5  6  1  0
  6  7  1  1
  7  8  1  6
  7  9  1  0
  9 10  1  0
 10 11  1  0
 11 12  1  1
 12 13  2  3
 13 14  1  0
 14 15  1  0
 15 16  1  6
 15 17  1  0
 17 18  1  0
 18 19  1  0
 19 20  1  6
 19 21  1  0
 21 22  1  6
 22 23  1  0
 23 24  1  0
 24 25  1  0
 25 26  2  3
 26 27  1  0
 27 28  1  0
 29 28  1  1
 29 30  1  0
 30 31  2  3
 31 32  1  1
 33 32  1  6
 33 34  1  0
 34 35  1  6
 36 35  1  1
 36 37  1  0
 37 38  1  0
 38 39  1  0
 39 40  1  1
 39 41  1  0
 41 42  1  0
 42 43  1  1
 42 44  1  0
 44 45  1  0
 46 45  1  1
 46 47  1  0
 47 48  1  0
 48 49  1  0
 49 50  1  0
 50 51  1  0
 52 51  1  1
 52 53  1  0
 53 54  1  0
 54 55  1  0
 56 55  1  6
 56 57  1  0
 57 58  1  0
 58 59  1  0
 59 60  1  1
 59 61  1  0
 61 62  1  0
 63 62  1  1
 63 64  1  0
 64 65  1  0
 65 66  1  0
 67 66  1  1
 67 68  1  0
  1 54  1  6
 56  1  1  0
 36  3  1  0
 52  5  1  0
 31  6  1  0
 46 11  1  0
 68 21  1  1
 63 29  1  0
 68 33  1  0
 67 34  1  0
M  CHG  1  16   1
M  RAD  6   9   2  13   2  16   2  49   2  53   2  54   2
M  END
>  <fragInfo>  (1) 
1 2 3 4 5 6 7 8 9 10 11 12 13 14 15 16 17 18 19 20 21 22 23 24 25 26 27 28 29 30 31 32 33 34 35 36 37 38 39 40 41 42 43 44 45 46 47 48 49 50 51 52 53 54 55 56 57 58 59 60 61 62 63 64 65 66 67 68


>  <torsionInfo>  (1) 


>  <atomInfo>  (1) 
1  -0.0291726C 
2  -0.0371521C 
3  -0.0465585C 
4  -0.0459277C 
5  -0.0254490C 
6  0.01496783C 
7  -0.0285585C 
8  -0.0611513C 
9  -0.0340407C 
10 -0.0432185C 
11 -0.0188461C 
12 -0.0773648C 
13 -0.0418922C 
14 0.04361207C 
15 0.28051592C 
16 0.42194470N 
17 0.01905046C 
18 -0.0440237C 
19 -0.0408192C 
20 -0.0622284C 
21 -0.0331584C 
22 -0.0495234C 
23 -0.0495095C 
24 -0.0342458C 
25 -0.0782116C 
26 -0.0331943C 
27 -0.1338244SA
28 0.00447408C 
29 -0.0048053C 
30 -0.0465272C 
31 -0.1272358S 
32 -0.0874972SA
33 0.04675293C 
34 -0.2372831S 
35 -0.0212045C 
36 -0.0336588C 
37 -0.0494582C 
38 -0.0503791C 
39 -0.0432272C 
40 -0.0624698C 
41 -0.0389629C 
42 0.00213059C 
43 -0.0532967C 
44 -0.1585541SA
45 -0.0030817C 
46 -0.0259552C 
47 -0.0488211C 
48 -0.0498682C 
49 -0.0385627C 
50 -0.0498974C 
51 -0.0495715C 
52 -0.0337850C 
53 -0.0280745C 
54 -0.0164856C 
55 -0.0433173C 
56 -0.0371779C 
57 -0.0498768C 
58 -0.0504361C 
59 -0.0442592C 
60 -0.0625093C 
61 -0.0504251C 
62 -0.0495829C 
63 -0.0337892C 
64 -0.0497976C 
65 -0.0520171C 
66 -0.0425551C 
67 -0.0077367C 
68 -0.0076194C 


$$$$
