
     RDKit          3D

 11 11  0  0  0  0  0  0  0  0999 V2000
    3.5024   -0.1810   -0.2219 O   0  0  0  0  0  0  0  0  0  0  0  0
    2.6430    0.7188   -0.2477 C   0  0  0  0  0  0  0  0  0  0  0  0
    1.2449    0.3567    0.0387 C   0  0  0  0  0  0  0  0  0  0  0  0
    0.3617    1.3527   -0.0006 C   0  0  0  0  0  0  0  0  0  0  0  0
   -1.0765    1.2863    0.2389 C   0  0  0  0  0  0  0  0  0  0  0  0
   -1.7486    2.3486    0.1187 O   0  0  0  0  0  0  0  0  0  0  0  0
   -1.8667    0.0866    0.6177 C   0  0  0  0  0  0  0  0  0  0  0  0
   -1.4559   -1.1365   -0.1682 C   0  0  2  0  0  0  0  0  0  0  0  0
   -2.4360   -2.2457    0.2073 C   0  0  0  0  0  0  0  0  0  0  0  0
   -0.1498   -1.5733    0.2237 N   0  0  0  0  0  0  0  0  0  0  0  0
    0.9815   -1.0132    0.3268 N   0  0  0  0  0  0  0  0  0  0  0  0
  1  2  2  0
  2  3  1  0
  3  4  2  0
  4  5  1  0
  5  6  2  0
  5  7  1  0
  7  8  1  0
  8  9  1  1
  8 10  1  0
 10 11  2  0
 11  3  1  0
M  END
>  <fragInfo>  (1) 
3 4 5 6 7 8 9 10 11
1 2


>  <torsionInfo>  (1) 
2 3 1 0


>  <atomInfo>  (1) 
1  -0.2960834OA
2  0.16993801C 
3  0.12844610C 
4  0.01212634C 
5  0.15971848C 
6  -0.2946879OA
7  0.03433816C 
8  0.07564224C 
9  -0.0403178C 
10 -0.1850173NA
11 -0.1521856NA


$$$$
