
     RDKit          3D

 22 21  0  0  0  0  0  0  0  0999 V2000
   -5.2199   -2.0517    0.6846 C   0  0  0  0  0  0  0  0  0  0  0  0
   -3.9447   -1.9320    1.2185 O   0  0  0  0  0  0  0  0  0  0  0  0
   -3.6792   -0.7438    1.7758 C   0  0  0  0  0  3  0  0  0  0  0  0
   -3.1283    0.2526    1.1193 O   0  0  0  0  0  0  0  0  0  0  0  0
   -3.0517    0.2457   -0.2777 C   0  0  2  0  0  0  0  0  0  0  0  0
   -4.5000    0.7689   -0.6559 C   0  0  0  0  0  0  0  0  0  0  0  0
   -4.6536    1.9094    0.1101 O   0  0  0  0  0  0  0  0  0  0  0  0
   -5.5315    2.0782    1.1022 C   0  0  0  0  0  0  0  0  0  0  0  0
   -6.2877    1.2356    1.5580 O   0  0  0  0  0  0  0  0  0  0  0  0
   -2.8602   -1.0139   -0.7458 O   0  0  0  0  0  0  0  0  0  0  0  0
   -1.7027   -1.4629   -0.2880 N   0  0  0  0  0  0  0  0  0  0  0  0
   -0.3475   -0.4696   -0.3156 S   0  0  0  0  0  0  0  0  0  0  0  0
    0.9843   -1.3013   -0.9351 O   0  0  0  0  0  0  0  0  0  0  0  0
    2.0958   -1.0687   -0.0605 C   0  0  0  0  0  0  0  0  0  0  0  0
    2.4122    0.3962   -0.6009 C   0  0  0  0  0  0  0  0  0  0  0  0
    3.7825    0.7028   -0.1465 C   0  0  0  0  0  0  0  0  0  0  0  0
    4.6272   -0.3402   -0.4204 O   0  0  0  0  0  0  0  0  0  0  0  0
    4.8651   -0.7362   -1.6929 C   0  0  0  0  0  3  0  0  0  0  0  0
    6.1102   -0.0794   -2.0278 O   0  0  0  0  0  0  0  0  0  0  0  0
    6.5707    0.6840   -1.0300 C   0  0  0  0  0  0  0  0  0  0  0  0
    6.9062    0.0914    0.2053 C   0  0  0  0  0  0  0  0  0  0  0  0
    6.5530    0.2166    1.4232 C   0  0  0  0  0  0  0  0  0  0  0  0
  1  2  1  0
  2  3  1  0
  3  4  1  0
  4  5  1  0
  5  6  1  6
  6  7  1  0
  7  8  1  0
  8  9  2  0
  5 10  1  0
 10 11  1  0
 11 12  1  0
 12 13  1  0
 13 14  1  0
 14 15  1  0
 15 16  1  0
 16 17  1  0
 17 18  1  0
 18 19  1  0
 19 20  1  0
 20 21  1  0
 21 22  2  0
M  RAD  2   3   2  18   2
M  END
>  <fragInfo>  (1) 
1 2
3
4
5
6
7
8 9
10
11
12
13
14
15
16
17
18
19
20
21 22


>  <torsionInfo>  (1) 
2 3 0 1
3 4 1 2
4 5 2 3
5 6 3 4
5 10 3 7
6 7 4 5
7 8 5 6
10 11 7 8
11 12 8 9
12 13 9 10
13 14 10 11
14 15 11 12
15 16 12 13
16 17 13 14
17 18 14 15
18 19 15 16
19 20 16 17
20 21 17 18


>  <atomInfo>  (1) 
1  0.03885777C 
2  -0.3512692OA
3  0.21153913C 
4  -0.3129364OA
5  0.21500666C 
6  0.14380693C 
7  -0.4624129OA
8  0.29276334C 
9  -0.2561352OA
10 -0.2536515OA
11 -0.1164278NA
12 0.10548606SA
13 -0.2996521OA
14 0.06506274C 
15 -0.0045118C 
16 0.05219813C 
17 -0.3478783OA
18 0.20925069C 
19 -0.3437964OA
20 0.06784352C 
21 -0.0660932C 
22 -0.1008016C 


$$$$
