
     RDKit          3D

 24 25  0  0  0  0  0  0  0  0999 V2000
    2.8179    0.4653    2.0508 C   0  0  0  0  0  0  0  0  0  0  0  0
    1.9909    1.0630    0.9543 C   0  0  1  0  0  0  0  0  0  0  0  0
    2.8441    2.0742    0.2215 C   0  0  0  0  0  0  0  0  0  0  0  0
    3.9427    1.3419   -0.5480 C   0  0  2  0  0  0  0  0  0  0  0  0
    3.4764    1.2261   -1.8588 O   0  0  0  0  0  0  0  0  0  0  0  0
    4.0560   -0.0495    0.0346 C   0  0  2  0  0  0  0  0  0  0  0  0
    5.1523   -0.6541   -0.5985 O   0  0  0  0  0  0  0  0  0  0  0  0
    2.8319   -0.8694   -0.2873 C   0  0  1  0  0  0  0  0  0  0  0  0
    2.8514   -1.9747    0.5870 O   0  0  0  0  0  0  0  0  0  0  0  0
    1.6040   -0.0099   -0.0383 C   0  0  1  0  0  0  0  0  0  0  0  0
    0.4887   -0.8067    0.4322 N   0  0  0  0  0  0  0  0  0  0  0  0
   -0.6545    0.0753    0.5782 C   0  0  1  0  0  0  0  0  0  0  0  0
   -0.9766    0.6192   -0.8019 C   0  0  0  0  0  0  0  0  0  0  0  0
   -2.4793    0.8356   -0.9563 C   0  0  2  0  0  0  0  0  0  0  0  0
   -2.7011    1.5637   -2.1000 O   0  0  0  0  0  0  0  0  0  0  0  0
   -2.9179    1.6592    0.2480 C   0  0  0  0  0  0  0  0  0  0  0  0
   -4.2571    1.9866    0.1934 O   0  0  0  0  0  0  0  0  0  0  0  0
   -3.2097   -0.4981   -0.9834 C   0  0  1  0  0  0  0  0  0  0  0  0
   -3.4532   -0.9242   -2.2861 O   0  0  0  0  0  0  0  0  0  0  0  0
   -2.3339   -1.4861   -0.2344 C   0  0  2  0  0  0  0  0  0  0  0  0
   -3.0659   -2.7646    0.0812 C   0  0  0  0  0  0  0  0  0  0  0  0
   -1.8287   -0.7863    0.9906 C   0  0  1  0  0  0  0  0  0  0  0  0
   -1.5312   -1.6417    2.0392 O   0  0  0  0  0  0  0  0  0  0  0  0
   -2.6470   -2.3229    2.2822 O   0  0  0  0  0  0  0  0  0  0  0  0
  2  1  1  1
  2  3  1  0
  3  4  1  0
  4  5  1  6
  4  6  1  0
  6  7  1  6
  6  8  1  0
  8  9  1  1
  8 10  1  0
 10 11  1  1
 12 11  1  6
 12 13  1  0
 13 14  1  0
 14 15  1  6
 14 16  1  0
 16 17  1  0
 14 18  1  0
 18 19  1  6
 18 20  1  0
 20 21  1  1
 20 22  1  0
 22 23  1  1
 23 24  1  0
 10  2  1  0
 22 12  1  0
M  END
>  <fragInfo>  (1) 
1 2 3 4 5 6 7 8 9 10
11
12 13 14 15 18 19 20 21 22
16 17
23 24


>  <torsionInfo>  (1) 
10 11 0 1
11 12 1 2
14 16 2 3
22 23 2 4


>  <atomInfo>  (1) 
1  -0.0608233C 
2  -0.0236278C 
3  -0.0201755C 
4  0.08280077C 
5  -0.3903155OA
6  0.10722523C 
7  -0.3876533OA
8  0.09792985C 
9  -0.3886791OA
10 0.03843419C 
11 -0.3054858NA
12 0.03985529C 
13 -0.0011310C 
14 0.11532501C 
15 -0.3846979OA
16 0.07452244C 
17 -0.3932762OA
18 0.09020144C 
19 -0.3896474OA
20 0.01592516C 
21 -0.0572393C 
22 0.11313983C 
23 -0.2340645OA
24 -0.2514680OA


$$$$
