
     RDKit          3D

 29 32  0  0  0  0  0  0  0  0999 V2000
   -0.6657    4.5842   -1.0539 C   0  0  0  0  0  0  0  0  0  0  0  0
   -1.4517    3.3569   -0.6536 C   0  0  0  0  0  2  0  0  0  0  0  0
   -0.7108    2.6906    0.4975 C   0  0  0  0  0  0  0  0  0  0  0  0
   -0.3831    1.2960    0.0779 C   0  0  2  0  0  0  0  0  0  0  0  0
   -0.9508    0.2419    1.0026 C   0  0  0  0  0  3  0  0  0  0  0  0
   -2.1642   -0.3264    0.3475 C   0  0  0  0  0  0  0  0  0  0  0  0
   -3.0510    0.4979   -0.3156 C   0  0  0  0  0  0  0  0  0  0  0  0
   -4.1795   -0.0067   -0.9284 C   0  0  0  0  0  0  0  0  0  0  0  0
   -4.4734   -1.3585   -0.9065 C   0  0  0  0  0  0  0  0  0  0  0  0
   -5.6169   -1.8543   -1.5297 O   0  0  0  0  0  0  0  0  0  0  0  0
   -3.5785   -2.1710   -0.2402 C   0  0  0  0  0  0  0  0  0  0  0  0
   -2.4465   -1.6770    0.3763 C   0  0  0  0  0  0  0  0  0  0  0  0
   -1.4950   -2.6005    1.0936 C   0  0  0  0  0  0  0  0  0  0  0  0
   -1.1559   -3.7089    0.1206 C   0  0  0  0  0  3  0  0  0  0  0  0
    0.3327   -3.9200   -0.0164 C   0  0  0  0  0  2  0  0  0  0  0  0
    0.9583   -2.8879   -0.9171 C   0  0  0  0  0  0  0  0  0  0  0  0
    2.6419   -2.5925    0.2393 S   0  0  2  0  0  0  0  0  0  0  0  0
    2.0698   -2.0285    1.7760 C   0  0  0  0  0  0  0  0  0  0  0  0
    1.5121   -0.6642    1.5855 C   0  0  0  0  0  0  0  0  0  0  0  0
    1.3299   -0.4312    0.1061 C   0  0  1  0  0  0  0  0  0  0  0  0
    1.0984    1.0537   -0.0846 C   0  0  2  0  0  0  0  0  0  0  0  0
    1.8488    1.7141    0.8794 O   0  0  0  0  0  0  0  0  0  0  0  0
    1.5119    2.9818    0.9858 O   0  0  0  0  0  0  0  0  0  0  0  0
    1.3893    3.4695   -0.3233 C   0  0  0  0  0  0  0  0  0  0  0  0
    0.5812    4.7639   -0.2046 C   0  0  0  0  0  3  0  0  0  0  0  0
    2.6912   -0.7258   -0.5343 C   0  0  0  0  0  3  0  0  0  0  0  0
    3.7277   -0.1267    0.3933 C   0  0  0  0  0  0  0  0  0  0  0  0
    5.1309   -0.3260   -0.0874 C   0  0  0  0  0  3  0  0  0  0  0  0
    5.4988    0.7559   -0.9011 O   0  0  0  0  0  0  0  0  0  0  0  0
  1  2  1  0
  2  3  1  0
  4  3  1  1
  4  5  1  0
  5  6  1  0
  6  7  2  0
  7  8  1  0
  8  9  2  0
  9 10  1  0
  9 11  1  0
 11 12  2  0
 12 13  1  0
 13 14  1  0
 14 15  1  0
 15 16  1  0
 17 16  1  6
 17 18  1  0
 18 19  1  0
 20 19  1  1
 20 21  1  0
 21 22  1  1
 22 23  1  0
 23 24  1  0
 24 25  1  0
 17 26  1  0
 26 27  1  0
 27 28  1  0
 28 29  1  0
 25  1  1  0
 21  4  1  0
 12  6  1  0
 26 20  1  0
M  RAD  7   2   3   5   2  14   2  15   3  25   2  26   2  28   2
M  END
>  <fragInfo>  (1) 
1 2 3 4 5 6 7 8 9 10 11 12 13 14 15 16 17 18 19 20 21 22 23 24 25 26
27
28 29


>  <torsionInfo>  (1) 
26 27 0 1
27 28 1 2


>  <atomInfo>  (1) 
1  -0.0409472C 
2  -0.0165502C 
3  -0.0404013C 
4  -0.0034058C 
5  -0.0031973C 
6  -0.0404229A 
7  -0.0547776A 
8  -0.0199237A 
9  0.11537080A 
10 -0.5079560OA
11 -0.0167172A 
12 -0.0405142A 
13 -0.0237154C 
14 -0.0260074C 
15 -0.0043902C 
16 -0.0175972C 
17 -0.2456305S 
18 -0.0243275C 
19 -0.0390172C 
20 0.00372769C 
21 0.10052108C 
22 -0.2327161OA
23 -0.2361277OA
24 0.08538977C 
25 -0.0089232C 
26 0.01945962C 
27 -0.0096011C 
28 0.08124131C 
29 -0.3903812OA


$$$$
