
     RDKit          3D

 18 18  0  0  0  0  0  0  0  0999 V2000
    1.4255   -0.6553    0.5616 C   0  0  0  0  0  0  0  0  0  0  0  0
    2.7201   -0.0563    0.1700 C   0  0  1  0  0  0  0  0  0  0  0  0
    3.5766   -1.0685   -0.5461 C   0  0  0  0  0  0  0  0  0  0  0  0
    2.6763    1.1831   -0.5953 C   0  0  0  0  0  0  0  0  0  0  0  0
    2.1961    2.3070   -0.0827 C   0  0  0  0  0  0  0  0  0  0  0  0
    1.6961    2.2609    1.3188 C   0  0  0  0  0  0  0  0  0  0  0  0
    0.3526    1.7484    1.2515 O   0  0  0  0  0  0  0  0  0  0  0  0
   -0.4055    2.1378    0.2028 C   0  0  0  0  0  0  0  0  0  0  0  0
   -1.4431    1.5682   -0.3583 C   0  0  0  0  0  0  0  0  0  0  0  0
   -2.1367    2.5978   -1.8493 Br  0  0  0  0  0  0  0  0  0  0  0  0
   -1.9933    0.3767    0.0851 C   0  0  0  0  0  0  0  0  0  0  0  0
   -1.7109   -0.9196    0.0254 C   0  0  0  0  0  0  0  0  0  0  0  0
   -2.6778   -1.7855    0.6972 C   0  0  0  0  0  0  0  0  0  0  0  0
   -3.6877   -1.3321    1.2860 O   0  0  0  0  0  0  0  0  0  0  0  0
   -2.5204   -3.1468    0.7101 O   0  0  0  0  0  0  0  0  0  0  0  0
   -0.5774   -1.4644   -0.6459 C   0  0  0  0  0  0  0  0  0  0  0  0
    0.7026   -1.3964   -0.4833 C   0  0  0  0  0  0  0  0  0  0  0  0
    1.8068   -2.3550   -1.7476 Br  0  0  0  0  0  0  0  0  0  0  0  0
  1  2  1  0
  2  3  1  6
  2  4  1  0
  4  5  2  3
  5  6  1  0
  6  7  1  0
  7  8  1  0
  8  9  2  3
  9 10  1  0
  9 11  1  0
 11 12  2  3
 12 13  1  0
 13 14  2  0
 13 15  1  0
 12 16  1  0
 16 17  2  3
 17 18  1  0
 17  1  1  0
M  END
>  <fragInfo>  (1) 
1 2 3 4 5 6 7 8 9 10 11 12 16 17 18
13 14 15


>  <torsionInfo>  (1) 
12 13 0 1


>  <atomInfo>  (1) 
1  -0.0151482C 
2  -0.0215072C 
3  -0.0586690C 
4  -0.0819919C 
5  -0.0511111C 
6  0.10555191C 
7  -0.4959689OA
8  0.09756586C 
9  0.05288130C 
10 -0.0474536Br
11 -0.0302679C 
12 0.06145465C 
13 0.33524993C 
14 -0.2463975OA
15 -0.4776384OA
16 -0.0374564C 
17 -0.0035030C 
18 -0.0556060Br


$$$$
