
     RDKit          3D

 27 27  0  0  0  0  0  0  0  0999 V2000
    4.0241   -0.8350   -0.8024 C   0  0  0  0  0  0  0  0  0  0  0  0
    4.5197   -1.2865    0.5769 C   0  0  1  0  0  0  0  0  0  0  0  0
    5.7301   -0.4178    0.9174 C   0  0  0  0  0  0  0  0  0  0  0  0
    3.4567   -0.9406    1.6173 C   0  0  0  0  0  0  0  0  0  0  0  0
    2.1017   -1.3237    1.0196 C   0  0  0  0  0  0  0  0  0  0  0  0
    1.5631   -2.5733    1.6856 C   0  0  0  0  0  0  0  0  0  0  0  0
    0.5906   -3.2060    0.7212 C   0  0  1  0  0  0  0  0  0  0  0  0
    0.1225   -4.5733    1.2047 C   0  0  0  0  0  0  0  0  0  0  0  0
   -0.5893   -2.2719    0.5144 C   0  0  0  0  0  3  0  0  0  0  0  0
   -1.6571   -2.9321   -0.3292 C   0  0  0  0  0  0  0  0  0  0  0  0
   -2.9674   -2.1999   -0.0917 C   0  0  0  0  0  0  0  0  0  0  0  0
   -3.1018   -1.9260    1.3900 C   0  0  2  0  0  0  0  0  0  0  0  0
   -4.3966   -2.5381    1.8609 C   0  0  0  0  0  0  0  0  0  0  0  0
   -3.1720   -0.4407    1.6311 C   0  0  0  0  0  0  0  0  0  0  0  0
   -3.4314    0.2995    0.3495 C   0  0  1  0  0  0  0  0  0  0  0  0
   -4.8160    0.7267    0.3413 N   0  0  0  0  0  1  0  0  0  0  0  0
   -2.4885    1.4915    0.2053 C   0  0  0  0  0  0  0  0  0  0  0  0
   -2.2823    1.7169   -1.2677 C   0  0  0  0  0  0  0  0  0  0  0  0
   -1.8617    3.1032   -1.6057 C   0  0  1  0  0  0  0  0  0  0  0  0
   -1.4397    3.9327   -0.4425 C   0  0  0  0  0  0  0  0  0  0  0  0
   -1.0269    3.1880   -2.6997 O   0  0  0  0  0  0  0  0  0  0  0  0
    0.2800    2.8274   -2.4356 C   0  0  0  0  0  0  0  0  0  0  0  0
    0.4730    2.3753   -1.0021 C   0  0  0  0  0  0  0  0  0  0  0  0
    1.9027    2.4875   -0.5515 C   0  0  2  0  0  0  0  0  0  0  0  0
    2.5211    3.6423   -0.9727 O   0  0  0  0  0  0  0  0  0  0  0  0
    2.6678    1.3090   -0.6550 C   0  0  0  0  0  0  0  0  0  0  0  0
    3.2777    0.3652   -0.7187 C   0  0  0  0  0  0  0  0  0  0  0  0
  1  2  1  0
  2  3  1  1
  2  4  1  0
  4  5  1  0
  5  6  1  0
  6  7  1  0
  7  8  1  1
  7  9  1  0
  9 10  1  0
 10 11  1  0
 11 12  1  0
 12 13  1  6
 12 14  1  0
 14 15  1  0
 15 16  1  1
 15 17  1  0
 17 18  1  0
 18 19  1  0
 19 20  1  1
 19 21  1  0
 21 22  1  0
 22 23  1  0
 23 24  1  0
 24 25  1  6
 24 26  1  0
 26 27  3  0
 27  1  1  0
M  CHG  1  16   1
M  RAD  2   9   2  16   2
M  END
>  <fragInfo>  (1) 
1 2 3 4 5 6 7 8 9 10 11 12 13 14 15 16 17 18 19 20 21 22 23 24 25 26 27


>  <torsionInfo>  (1) 


>  <atomInfo>  (1) 
1  0.01153848C 
2  -0.0332742C 
3  -0.0615980C 
4  -0.0497915C 
5  -0.0527548C 
6  -0.0504258C 
7  -0.0411603C 
8  -0.0622342C 
9  -0.0357404C 
10 -0.0496605C 
11 -0.0501843C 
12 -0.0378796C 
13 -0.0622665C 
14 0.02100559C 
15 0.27690662C 
16 0.42156756N 
17 0.02089271C 
18 -0.0206161C 
19 0.05490069C 
20 -0.0386752C 
21 -0.3783662OA
22 0.05034864C 
23 0.00802832C 
24 0.11646254C 
25 -0.3802925OA
26 -0.0716006C 
27 -0.1002873C 


$$$$
