
     RDKit          3D

 20 20  0  0  0  0  0  0  0  0999 V2000
   -1.0644   -1.3220    0.6225 C   0  0  0  0  0  0  0  0  0  0  0  0
   -2.3426   -1.5292    0.0167 N   0  0  0  0  0  0  0  0  0  0  0  0
   -2.2808   -2.3074   -1.2001 C   0  0  0  0  0  0  0  0  0  0  0  0
   -3.3645   -2.0131    0.9290 C   0  0  0  0  0  0  0  0  0  0  0  0
   -4.5251   -1.0081    0.8388 C   0  0  0  0  0  0  0  0  0  0  0  0
   -4.0907    0.2277    0.1994 C   0  0  0  0  0  0  0  0  0  0  0  0
   -4.4499    1.4552    0.4992 C   0  0  0  0  0  0  0  0  0  0  0  0
   -3.8275    2.4719   -0.3369 N   0  0  0  0  0  0  0  0  0  0  0  0
   -2.4089    2.2308   -0.5323 C   0  0  0  0  0  0  0  0  0  0  0  0
   -2.0490    0.9771   -0.7268 C   0  0  0  0  0  0  0  0  0  0  0  0
   -0.6834    0.5674   -0.9350 C   0  0  0  0  0  0  0  0  0  0  0  0
   -0.2104   -0.5248   -0.2961 C   0  0  0  0  0  0  0  0  0  0  0  0
    1.2032   -0.9469   -0.5136 C   0  0  0  0  0  0  0  0  0  0  0  0
    1.8542   -0.9099    0.7768 N   0  0  0  0  0  0  0  0  0  0  0  0
    3.0955   -0.6942    0.8219 N   0  0  0  0  0  0  0  0  0  0  0  0
    3.7981   -0.5025   -0.3117 O   0  0  0  0  0  0  0  0  0  0  0  0
    5.1276   -0.2767   -0.4085 N   0  0  0  0  0  0  0  0  0  0  0  0
    5.7364    0.7226    0.0616 N   0  0  0  0  0  0  0  0  0  0  0  0
    5.0143    1.7118    0.7526 N   0  0  0  0  0  2  0  0  0  0  0  0
    5.4677    1.6702    2.1421 C   0  0  0  0  0  0  0  0  0  0  0  0
  1  2  1  0
  2  3  1  0
  2  4  1  0
  4  5  1  0
  5  6  1  0
  6  7  2  3
  7  8  1  0
  8  9  1  0
  9 10  2  3
 10 11  1  0
 11 12  2  3
 12 13  1  0
 13 14  1  0
 14 15  2  3
 15 16  1  0
 16 17  1  0
 17 18  2  3
 18 19  1  0
 19 20  1  0
 12  1  1  0
M  CHG  1  19   1
M  RAD  1  19   3
M  END
>  <fragInfo>  (1) 
1 2 3 4 5 6 7 8 9 10 11 12
13
14 15
16
17 18
19 20


>  <torsionInfo>  (1) 
12 13 0 1
13 14 1 2
15 16 2 3
16 17 3 4
18 19 4 5


>  <atomInfo>  (1) 
1  0.02116636C 
2  -0.3020541NA
3  -0.0130334C 
4  0.00169378C 
5  -0.0204759C 
6  -0.0671889C 
7  -0.0035155C 
8  -0.3679493N 
9  0.00043024C 
10 -0.0461008C 
11 -0.0584062C 
12 -0.0328680C 
13 0.08618342C 
14 -0.1468405NA
15 0.05567421NA
16 -0.1991105OA
17 0.12222237NA
18 0.19257119NA
19 0.25355682N 
20 0.21494191C 


$$$$
