
     RDKit          3D

 10 10  0  0  0  0  0  0  0  0999 V2000
    1.4864   -0.6430   -0.6993 C   0  0  0  0  0  0  0  0  0  0  0  0
    0.8519   -1.8766   -0.1585 C   0  0  0  0  0  3  0  0  0  0  0  0
   -0.3932   -1.6743    0.6111 C   0  0  0  0  0  0  0  0  0  0  0  0
   -1.3402   -0.6704    0.0683 C   0  0  2  0  0  0  0  0  0  0  0  0
   -1.3973   -0.6002   -1.3046 O   0  0  0  0  0  0  0  0  0  0  0  0
   -0.9978    0.6829    0.6843 C   0  0  2  0  0  0  0  0  0  0  0  0
   -2.1126    1.4955    0.7873 O   0  0  0  0  0  0  0  0  0  0  0  0
    0.0916    1.2814   -0.1768 C   0  0  0  0  0  3  0  0  0  0  0  0
    1.3820    0.5538    0.1931 C   0  0  2  0  0  0  0  0  0  0  0  0
    2.4292    1.4510   -0.0050 O   0  0  0  0  0  0  0  0  0  0  0  0
  1  2  1  0
  2  3  1  0
  3  4  1  0
  4  5  1  6
  4  6  1  0
  6  7  1  6
  6  8  1  0
  8  9  1  0
  9 10  1  6
  9  1  1  0
M  RAD  2   2   2   8   2
M  END
>  <fragInfo>  (1) 
1 2 3 4 5 6 7 8 9 10


>  <torsionInfo>  (1) 


>  <atomInfo>  (1) 
1  -0.0234037C 
2  -0.0333701C 
3  -0.0212254C 
4  0.08053133C 
5  -0.3904117OA
6  0.08560569C 
7  -0.3900264OA
8  0.02124394C 
9  0.06010306C 
10 -0.3927119OA


$$$$
