
     RDKit          3D

 30 31  0  0  0  0  0  0  0  0999 V2000
   -3.8158   -2.8612   -0.2755 C   0  0  0  0  0  0  0  0  0  0  0  0
   -4.9321   -1.8487   -0.4814 C   0  0  1  0  0  0  0  0  0  0  0  0
   -6.2870   -2.5003   -0.5398 C   0  0  0  0  0  0  0  0  0  0  0  0
   -4.8677   -0.7280    0.5193 C   0  0  0  0  0  0  0  0  0  0  0  0
   -5.0970    0.5775   -0.2085 C   0  0  0  0  0  0  0  0  0  0  0  0
   -4.6597    1.7740    0.5981 C   0  0  0  0  0  0  0  0  0  0  0  0
   -3.4443    2.4558    0.0141 C   0  0  1  0  0  0  0  0  0  0  0  0
   -3.7887    3.8769   -0.3552 C   0  0  0  0  0  0  0  0  0  0  0  0
   -2.3186    2.4726    1.0193 C   0  0  0  0  0  3  0  0  0  0  0  0
   -1.0775    2.9892    0.2829 C   0  0  0  0  0  0  0  0  0  0  0  0
   -0.2428    1.7766   -0.0674 C   0  0  0  0  0  0  0  0  0  0  0  0
    1.1718    1.9200    0.4663 C   0  0  1  0  0  0  0  0  0  0  0  0
    1.3509    3.3732    0.8798 C   0  0  0  0  0  0  0  0  0  0  0  0
    1.4180    0.9831    1.6251 C   0  0  0  0  0  0  0  0  0  0  0  0
    2.0670   -0.3000    1.2203 C   0  0  0  0  0  0  0  0  0  0  0  0
    1.4285   -0.9405    0.0125 C   0  0  1  0  0  0  0  0  0  0  0  0
    2.3779   -1.0146   -1.1567 C   0  0  0  0  0  3  0  0  0  0  0  0
    3.6074   -1.8070   -0.8722 C   0  0  0  0  0  0  0  0  0  0  0  0
    4.4348   -1.2810    0.2538 C   0  0  1  0  0  0  0  0  0  0  0  0
    5.5464   -2.1375    0.3875 O   0  0  0  0  0  0  0  0  0  0  0  0
    4.9946    0.0741   -0.1217 C   0  0  0  0  0  0  0  0  0  0  0  0
    5.8445    0.6406    1.0054 C   0  0  0  0  0  0  0  0  0  0  0  0
    6.3749    1.9897    0.5753 C   0  0  0  0  0  0  0  0  0  0  0  0
    7.1608    1.8968   -0.5780 O   0  0  0  0  0  0  0  0  0  0  0  0
    0.9501   -2.1900    0.3864 O   0  0  0  0  0  0  0  0  0  0  0  0
   -0.1310   -2.6114   -0.3518 C   0  0  0  0  0  0  0  0  0  0  0  0
   -1.4468   -2.4865    0.4252 C   0  0  2  0  0  0  0  0  0  0  0  0
   -2.5061   -2.1028   -0.5242 C   0  0  2  0  0  0  0  0  0  0  0  0
   -2.5170   -0.8281    0.1524 C   0  0  0  0  0  0  0  0  0  0  0  0
   -1.5954   -1.1623    0.9782 C   0  0  0  0  0  0  0  0  0  0  0  0
  1  2  1  0
  2  3  1  1
  2  4  1  0
  4  5  1  0
  5  6  1  0
  6  7  1  0
  7  8  1  1
  7  9  1  0
  9 10  1  0
 10 11  1  0
 11 12  1  0
 12 13  1  1
 12 14  1  0
 14 15  1  0
 15 16  1  0
 16 17  1  6
 17 18  1  0
 18 19  1  0
 19 20  1  6
 19 21  1  0
 21 22  1  0
 22 23  1  0
 23 24  1  0
 16 25  1  0
 25 26  1  0
 27 26  1  6
 27 28  1  0
 28 29  1  0
 29 30  2  0
 28  1  1  1
 30 27  1  0
M  RAD  2   9   2  17   2
M  END
>  <fragInfo>  (1) 
1 2 3 4 5 6 7 8 9 10 11 12 13 14 15 16 25 26 27 28 29 30
17
18
19 20
21
22
23 24


>  <torsionInfo>  (1) 
16 17 0 1
17 18 1 2
18 19 2 3
19 21 3 4
21 22 4 5
22 23 5 6


>  <atomInfo>  (1) 
1  -0.0437178C 
2  -0.0436972C 
3  -0.0624880C 
4  -0.0506794C 
5  -0.0527878C 
6  -0.0504264C 
7  -0.0411603C 
8  -0.0622342C 
9  -0.0357404C 
10 -0.0496646C 
11 -0.0504253C 
12 -0.0441744C 
13 -0.0625079C 
14 -0.0482323C 
15 -0.0261911C 
16 0.06077988C 
17 -0.0071346C 
18 -0.0213200C 
19 0.05444145C 
20 -0.3931169OA
21 -0.0248162C 
22 -0.0274214C 
23 0.04314785C 
24 -0.3963748OA
25 -0.3772854OA
26 0.05378813C 
27 0.00650430C 
28 -0.0145763C 
29 -0.0843488C 
30 -0.0822318C 


$$$$
