
     RDKit          3D

 18 18  0  0  0  0  0  0  0  0999 V2000
    3.4881   -1.9314    4.0454 C   0  0  0  0  0  0  0  0  0  0  0  0
    3.0625   -2.2111    2.6366 C   0  0  0  0  0  0  0  0  0  0  0  0
    2.4648   -1.2361    1.9862 C   0  0  0  0  0  0  0  0  0  0  0  0
    2.0107   -1.3872    0.6263 C   0  0  0  0  0  0  0  0  0  0  0  0
    1.4146   -0.3953   -0.0036 C   0  0  0  0  0  0  0  0  0  0  0  0
    0.9108   -0.3839   -1.3375 C   0  0  0  0  0  0  0  0  0  0  0  0
   -0.2252   -0.6514   -1.8619 C   0  0  0  0  0  0  0  0  0  0  0  0
   -1.4427   -1.0639   -1.3642 N   0  0  0  0  0  0  0  0  0  0  0  0
   -2.1282   -2.1787   -2.0360 C   0  0  0  0  0  0  0  0  0  0  0  0
   -2.1213   -0.4910   -0.2251 C   0  0  2  0  0  0  0  0  0  0  0  0
   -3.4403    0.0846   -0.5909 C   0  0  0  0  0  0  0  0  0  0  0  0
   -3.8994    0.0767   -1.7170 O   0  0  0  0  0  0  0  0  0  0  0  0
    1.2526    0.8370    0.7317 N   0  0  0  0  0  0  0  0  0  0  0  0
    1.2957    2.1435    0.0477 C   0  0  0  0  0  3  0  0  0  0  0  0
   -0.1260    2.6795    0.0840 C   0  0  1  0  0  0  0  0  0  0  0  0
   -0.2477    3.9103   -0.6614 N   0  0  0  0  0  0  0  0  0  0  0  0
   -1.0096    1.6104   -0.5152 C   0  0  0  0  0  0  0  0  0  0  0  0
   -1.2592    0.5879    0.3125 C   0  0  0  0  0  0  0  0  0  0  0  0
  1  2  1  0
  2  3  2  3
  3  4  1  0
  4  5  2  3
  5  6  1  0
  6  7  2  3
  7  8  1  0
  8  9  1  0
  8 10  1  0
 10 11  1  6
 11 12  2  0
  5 13  1  0
 13 14  1  0
 14 15  1  0
 15 16  1  6
 15 17  1  0
 17 18  2  3
 18 10  1  0
M  RAD  1  14   2
M  END
>  <fragInfo>  (1) 
4 5 6 7 8 9 10 13 14 15 16 17 18
1 2 3
11 12


>  <torsionInfo>  (1) 
3 4 1 0
10 11 0 2


>  <atomInfo>  (1) 
1  -0.0466770C 
2  -0.0875857C 
3  -0.0645003C 
4  -0.0392271C 
5  0.03576299C 
6  -0.0229882C 
7  0.00175397C 
8  -0.3673293N 
9  0.00695127C 
10 0.10229431C 
11 0.14583670C 
12 -0.3006961OA
13 -0.3782255N 
14 0.06672277C 
15 0.04507699C 
16 -0.3226853NA
17 -0.0672603C 
18 -0.0574363C 


$$$$
