
     RDKit          3D

 30 29  0  0  0  0  0  0  0  0999 V2000
    8.7720    1.2408    0.5668 C   0  0  0  0  0  0  0  0  0  0  0  0
    7.3714    1.8151    0.4069 C   0  0  0  0  0  0  0  0  0  0  0  0
    7.3893    3.3300    0.4540 C   0  0  0  0  0  0  0  0  0  0  0  0
    6.4990    1.2609    1.4968 C   0  0  0  0  0  0  0  0  0  0  0  0
    6.4768   -0.2477    1.3562 C   0  0  0  0  0  0  0  0  0  0  0  0
    5.9027   -0.5434   -0.0345 C   0  0  0  0  0  0  0  0  0  0  0  0
    4.5097    0.0651   -0.0479 C   0  0  1  0  0  0  0  0  0  0  0  0
    3.8049   -0.1373   -1.3481 C   0  0  0  0  0  0  0  0  0  0  0  0
    3.7680   -0.4398    1.1442 C   0  0  0  0  0  3  0  0  0  0  0  0
    3.6374   -1.9493    1.1459 C   0  0  0  0  0  0  0  0  0  0  0  0
    2.8724   -2.3085   -0.1339 C   0  0  0  0  0  0  0  0  0  0  0  0
    1.5311   -1.5960   -0.0180 C   0  0  2  0  0  0  0  0  0  0  0  0
    0.7736   -2.0571    1.2041 C   0  0  0  0  0  0  0  0  0  0  0  0
    0.7469   -1.6904   -1.2824 C   0  0  0  0  0  3  0  0  0  0  0  0
   -0.5639   -0.9590   -1.0862 C   0  0  0  0  0  0  0  0  0  0  0  0
   -1.3464   -1.0484   -2.3390 C   0  0  0  0  0  0  0  0  0  0  0  0
   -2.6361   -0.3633   -2.2392 C   0  0  0  0  0  0  0  0  0  0  0  0
   -3.7554   -0.7575   -1.4800 C   0  0  0  0  0  0  0  0  0  0  0  0
   -4.0018   -0.7519   -0.1613 C   0  0  0  0  0  0  0  0  0  0  0  0
   -3.5381   -1.2741    1.0657 C   0  0  1  0  0  0  0  0  0  0  0  0
   -2.2685   -0.9469    1.4439 O   0  0  0  0  0  0  0  0  0  0  0  0
   -4.4718   -0.8788    2.2186 C   0  0  0  0  0  0  0  0  0  0  0  0
   -4.4579    0.6522    2.2340 C   0  0  0  0  0  0  0  0  0  0  0  0
   -5.3301    1.2020    3.3149 C   0  0  0  0  0  0  0  0  0  0  0  0
   -6.7492    0.7488    3.1065 C   0  0  0  0  0  0  0  0  0  0  0  0
   -7.6126    1.3211    4.2172 C   0  0  0  0  0  0  0  0  0  0  0  0
   -2.7202    0.7348   -3.0695 C   0  0  0  0  0  0  0  0  0  0  0  0
   -3.9543    1.5327   -3.0872 C   0  0  0  0  0  0  0  0  0  0  0  0
   -4.5142    1.5027   -4.4993 C   0  0  0  0  0  0  0  0  0  0  0  0
   -6.1346    2.5430   -4.5492 Br  0  0  0  0  0  0  0  0  0  0  0  0
  1  2  1  0
  2  3  1  0
  2  4  1  0
  4  5  1  0
  5  6  1  0
  6  7  1  0
  7  8  1  6
  7  9  1  0
  9 10  1  0
 10 11  1  0
 11 12  1  0
 12 13  1  1
 12 14  1  0
 14 15  1  0
 15 16  1  0
 16 17  1  0
 17 18  1  0
 18 19  1  0
 19 20  1  0
 20 21  1  1
 20 22  1  0
 22 23  1  0
 23 24  1  0
 24 25  1  0
 25 26  1  0
 17 27  2  3
 27 28  1  0
 28 29  1  0
 29 30  1  0
M  RAD  2   9   2  14   2
M  END
>  <fragInfo>  (1) 
1 2 3
4
5
6
7 8
9
10
11
12 13
14
15
16
17 27
18
19
20 21
22
23
24
25 26
28
29 30


>  <torsionInfo>  (1) 
2 4 0 1
4 5 1 2
5 6 2 3
6 7 3 4
7 9 4 5
9 10 5 6
10 11 6 7
11 12 7 8
12 14 8 9
14 15 9 10
15 16 10 11
16 17 11 12
17 18 12 13
27 28 12 20
18 19 13 14
19 20 14 15
20 22 15 16
22 23 16 17
23 24 17 18
24 25 18 19
28 29 20 21


>  <atomInfo>  (1) 
1  -0.0627736C 
2  -0.0471324C 
3  -0.0627736C 
4  -0.0509643C 
5  -0.0527983C 
6  -0.0504266C 
7  -0.0411603C 
8  -0.0622342C 
9  -0.0357403C 
10 -0.0496542C 
11 -0.0501520C 
12 -0.0411388C 
13 -0.0622339C 
14 -0.0354348C 
15 -0.0461714C 
16 -0.0317452C 
17 -0.0740659C 
18 -0.0295731C 
19 -0.0232712C 
20 0.05428993C 
21 -0.3931194OA
22 -0.0269970C 
23 -0.0508574C 
24 -0.0534738C 
25 -0.0561700C 
26 -0.0653823C 
27 -0.0845005C 
28 -0.0250334C 
29 0.00659517C 
30 -0.0924719Br


$$$$
