
     RDKit          2D

 73 75  0  0  0  0  0  0  0  0999 V2000
   18.9937   -0.9541    0.0000 C   0  0  0  0  0  0  0  0  0  0  0  0
   17.6234   -1.5642    0.0000 O   0  0  0  0  0  0  0  0  0  0  0  0
   16.4099   -0.6826    0.0000 C   0  0  0  0  0  3  0  0  0  0  0  0
   15.0395   -1.2927    0.0000 O   0  0  0  0  0  0  0  0  0  0  0  0
   13.8260   -0.4110    0.0000 C   0  0  0  0  0  0  0  0  0  0  0  0
   13.9828    1.0808    0.0000 C   0  0  0  0  0  0  0  0  0  0  0  0
   12.4557   -1.0211    0.0000 O   0  0  0  0  0  0  0  0  0  0  0  0
   12.2989   -2.5129    0.0000 C   0  0  0  0  0  0  0  0  0  0  0  0
   10.9286   -3.1230    0.0000 N   0  0  0  0  0  0  0  0  0  0  0  0
    9.7151   -2.2413    0.0000 C   0  0  0  0  0  3  0  0  0  0  0  0
    8.3447   -2.8514    0.0000 C   0  0  0  0  0  0  0  0  0  0  0  0
    7.1312   -1.9697    0.0000 C   0  0  0  0  0  3  0  0  0  0  0  0
    7.2880   -0.4779    0.0000 O   0  0  0  0  0  0  0  0  0  0  0  0
    5.7609   -2.5798    0.0000 C   0  0  0  0  0  0  0  0  0  0  0  0
    4.5474   -1.6982    0.0000 C   0  0  0  0  0  3  0  0  0  0  0  0
    3.1771   -2.3083    0.0000 O   0  0  0  0  0  0  0  0  0  0  0  0
    1.9635   -1.4266    0.0000 C   0  0  0  0  0  0  0  0  0  0  0  0
    2.4271    0.0000    0.0000 O   0  0  0  0  0  0  0  0  0  0  0  0
    1.9635    1.4266    0.0000 C   0  0  0  0  0  0  0  0  0  0  0  0
    3.1771    2.3083    0.0000 O   0  0  0  0  0  0  0  0  0  0  0  0
    0.7500    2.3083    0.0000 O   0  0  0  0  0  0  0  0  0  0  0  0
   -0.7500    2.3083    0.0000 C   0  0  0  0  0  3  0  0  0  0  0  0
   -1.9635    1.4266    0.0000 C   0  0  0  0  0  3  0  0  0  0  0  0
   -2.4271    0.0000    0.0000 C   0  0  0  0  0  3  0  0  0  0  0  0
   -1.9635   -1.4266    0.0000 O   0  0  0  0  0  0  0  0  0  0  0  0
   -0.7500   -2.3083    0.0000 C   0  0  0  0  0  0  0  0  0  0  0  0
   -1.2135   -3.7348    0.0000 O   0  0  0  0  0  0  0  0  0  0  0  0
    0.7500   -2.3083    0.0000 C   0  0  0  0  0  0  0  0  0  0  0  0
    1.2135   -3.7348    0.0000 C   0  0  0  0  0  0  0  0  0  0  0  0
    2.6401   -4.1984    0.0000 O   0  0  0  0  0  0  0  0  0  0  0  0
    2.6401   -5.6984    0.0000 N   0  0  0  0  0  0  0  0  0  0  0  0
    1.2135   -6.1619    0.0000 C   0  0  0  0  0  3  0  0  0  0  0  0
    0.3318   -4.9484    0.0000 C   0  0  0  0  0  0  0  0  0  0  0  0
   -1.1682   -4.9484    0.0000 C   0  0  0  0  0  0  0  0  0  0  0  0
   -1.9182   -6.2474    0.0000 O   0  0  0  0  0  0  0  0  0  0  0  0
   -3.4182   -6.2474    0.0000 O   0  0  0  0  0  0  0  0  0  0  0  0
   -4.1682   -7.5464    0.0000 C   0  0  0  0  0  3  0  0  0  0  0  0
   -5.6682   -7.5464    0.0000 C   0  0  0  0  0  0  0  0  0  0  0  0
   -6.4182   -6.2474    0.0000 O   0  0  0  0  0  0  0  0  0  0  0  0
   -6.4182   -8.8455    0.0000 C   0  0  0  0  0  3  0  0  0  0  0  0
   -7.9182   -8.8455    0.0000 O   0  0  0  0  0  0  0  0  0  0  0  0
   -8.6682  -10.1445    0.0000 C   0  0  0  0  0  3  0  0  0  0  0  0
  -10.1682  -10.1445    0.0000 O   0  0  0  0  0  0  0  0  0  0  0  0
  -10.9182  -11.4436    0.0000 C   0  0  0  0  0  2  0  0  0  0  0  0
   13.5124   -3.3946    0.0000 C   0  0  0  0  0  0  0  0  0  0  0  0
   14.8827   -2.7844    0.0000 O   0  0  0  0  0  0  0  0  0  0  0  0
   16.0963   -3.6661    0.0000 C   0  0  0  0  0  3  0  0  0  0  0  0
   17.4666   -3.0560    0.0000 O   0  0  0  0  0  0  0  0  0  0  0  0
   18.6801   -3.9377    0.0000 O   0  0  0  0  0  0  0  0  0  0  0  0
   20.0504   -3.3276    0.0000 C   0  0  0  0  0  3  0  0  0  0  0  0
   21.2640   -4.2093    0.0000 C   0  0  0  0  0  0  0  0  0  0  0  0
   21.1072   -5.7011    0.0000 O   0  0  0  0  0  0  0  0  0  0  0  0
   22.6343   -3.5992    0.0000 C   0  0  0  0  0  3  0  0  0  0  0  0
   23.8478   -4.4808    0.0000 O   0  0  0  0  0  0  0  0  0  0  0  0
   25.2181   -3.8707    0.0000 C   0  0  0  0  0  0  0  0  0  0  0  0
   26.4316   -4.7524    0.0000 N   0  0  0  0  0  0  0  0  0  0  0  0
   27.8020   -4.1423    0.0000 C   0  0  0  0  0  0  0  0  0  0  0  0
   29.0155   -5.0240    0.0000 O   0  0  0  0  0  0  0  0  0  0  0  0
   27.9588   -2.6505    0.0000 O   0  0  0  0  0  0  0  0  0  0  0  0
   29.3291   -2.0404    0.0000 N   0  0  0  0  0  0  0  0  0  0  0  0
   29.4859   -0.5486    0.0000 N   0  0  0  0  0  0  0  0  0  0  0  0
   30.8562    0.0615    0.0000 C   0  0  0  0  0  3  0  0  0  0  0  0
   31.0130    1.5532    0.0000 C   0  0  0  0  0  0  0  0  0  0  0  0
   32.3833    2.1633    0.0000 C   0  0  0  0  0  0  0  0  0  0  0  0
   32.4282    3.6627    0.0000 N   0  0  0  0  0  0  0  0  0  0  0  0
   33.6284    4.5624    0.0000 N   0  0  0  0  0  0  0  0  0  0  0  0
   35.0801    4.1850    0.0000 O   0  0  0  0  0  0  0  0  0  0  0  0
   35.6902    2.8147    0.0000 C   0  0  0  0  0  3  0  0  0  0  0  0
   34.9993    1.4833    0.0000 C   0  0  0  0  0  0  0  0  0  0  0  0
   35.8990    0.2831    0.0000 C   0  0  0  0  0  0  0  0  0  0  0  0
   35.3095   -1.0962    0.0000 O   0  0  0  0  0  0  0  0  0  0  0  0
   36.2092   -2.2964    0.0000 C   0  0  0  0  0  2  0  0  0  0  0  0
   33.5275    1.1935    0.0000 O   0  0  0  0  0  0  0  0  0  0  0  0
  1  2  1  0
  2  3  1  0
  3  4  1  0
  4  5  1  0
  5  6  1  1
  5  7  1  0
  7  8  1  0
  8  9  1  0
  9 10  1  0
 10 11  1  0
 11 12  1  0
 12 13  1  0
 12 14  1  0
 14 15  1  0
 15 16  1  0
 17 16  1  6
 17 18  1  0
 18 19  1  0
 19 20  1  1
 19 21  1  0
 21 22  1  0
 22 23  1  0
 23 24  1  0
 24 25  1  0
 25 26  1  0
 26 27  1  1
 28 26  1  6
 28 29  1  0
 29 30  1  1
 30 31  1  0
 31 32  1  0
 32 33  1  0
 33 34  1  1
 34 35  1  0
 35 36  1  0
 36 37  1  0
 37 38  1  0
 38 39  1  6
 38 40  1  0
 40 41  1  0
 41 42  1  0
 42 43  1  0
 43 44  1  0
  8 45  1  6
 45 46  1  0
 46 47  1  0
 47 48  1  0
 48 49  1  0
 49 50  1  0
 50 51  1  0
 51 52  1  1
 51 53  1  0
 53 54  1  0
 54 55  1  0
 55 56  1  0
 56 57  1  0
 57 58  1  6
 57 59  1  0
 59 60  1  0
 60 61  1  0
 61 62  1  0
 62 63  1  0
 64 63  1  6
 64 65  1  0
 65 66  1  0
 66 67  1  0
 67 68  1  0
 68 69  1  0
 69 70  1  1
 70 71  1  0
 71 72  1  0
 64 73  1  0
 28 17  1  0
 33 29  1  0
 73 69  1  0
M  RAD  8   3   2  10   2  12   2  15   2  22   2  23   2  24   2  32   2
M  RAD  8  37   2  40   2  42   2  44   3  47   2  50   2  53   2  62   2
M  RAD  2  68   2  72   3
M  END
>  <fragInfo>  (1) 
17 18 19 20 21 22 23 24 25 26 27 28
1 2
3
4
5 6
7
8
9
10
11
12 13
14
15
16
29 30 31 32 33
34
35
36
37
38 39
40
41
42
43 44
45
46
47
48
49
50
51 52
53
54
55
56
57 58
59
60
61
62
63
64 65 66 67 68 69 73
70
71 72


>  <torsionInfo>  (1) 
16 17 13 0
28 29 0 14
2 3 1 2
3 4 2 3
4 5 3 4
5 7 4 5
7 8 5 6
8 9 6 7
8 45 6 24
9 10 7 8
10 11 8 9
11 12 9 10
12 14 10 11
14 15 11 12
15 16 12 13
33 34 14 15
34 35 15 16
35 36 16 17
36 37 17 18
37 38 18 19
38 40 19 20
40 41 20 21
41 42 21 22
42 43 22 23
45 46 24 25
46 47 25 26
47 48 26 27
48 49 27 28
49 50 28 29
50 51 29 30
51 53 30 31
53 54 31 32
54 55 32 33
55 56 33 34
56 57 34 35
57 59 35 36
59 60 36 37
60 61 37 38
61 62 38 39
62 63 39 40
63 64 40 41
69 70 41 42
70 71 42 43


>  <atomInfo>  (1) 
1  0.03885774C 
2  -0.3512729OA
3  0.21124792C 
4  -0.3186876OA
5  0.15994083C 
6  -0.0132380C 
7  -0.3323016OA
8  0.13480567C 
9  -0.2856340NA
10 0.02757454C 
11 -0.0041012C 
12 0.09756066C 
13 -0.3867165OA
14 0.00793614C 
15 0.08989576C 
16 -0.3457747OA
17 0.17345196C 
18 -0.2996424OA
19 0.27119103C 
20 -0.3457413OA
21 -0.3235000OA
22 0.09566310C 
23 0.02485842C 
24 0.09315716C 
25 -0.3459287OA
26 0.16484079C 
27 -0.3673993OA
28 0.08966166C 
29 0.09833085C 
30 -0.2970156OA
31 -0.1969877NA
32 0.05797493C 
33 0.03365338C 
34 0.08924163C 
35 -0.2357891OA
36 -0.2274811OA
37 0.15321993C 
38 0.11503641C 
39 -0.3873396OA
40 0.11839952C 
41 -0.3388851OA
42 0.20986879C 
43 -0.3388744OA
44 0.11868706C 
45 0.08986945C 
46 -0.3415360OA
47 0.24556164C 
48 -0.1982142OA
49 -0.2245965OA
50 0.15335847C 
51 0.11498088C 
52 -0.3873406OA
53 0.11672182C 
54 -0.3572852OA
55 0.10097256C 
56 -0.2444073NA
57 0.23479639C 
58 -0.3544980OA
59 -0.2397954OA
60 -0.1322745NA
61 -0.2294109NA
62 0.04419126C 
63 0.00657947C 
64 0.12410169C 
65 -0.2065215NA
66 -0.1342874NA
67 -0.2778429OA
68 0.13982645C 
69 0.11390835C 
70 0.07633075C 
71 -0.3697705OA
72 0.11516979C 
73 -0.3534383OA


$$$$
