
     RDKit          3D

 28 29  0  0  0  0  0  0  0  0999 V2000
   -4.6228    3.3603    0.5645 C   0  0  0  0  0  0  0  0  0  0  0  0
   -4.3720    1.8941    0.3364 C   0  0  0  0  0  0  0  0  0  0  0  0
   -5.2562    1.0363    0.5860 O   0  0  0  0  0  0  0  0  0  0  0  0
   -3.1591    1.4431   -0.1559 O   0  0  0  0  0  0  0  0  0  0  0  0
   -2.9632    0.0804   -0.3542 C   0  0  0  0  0  3  0  0  0  0  0  0
   -4.1001   -0.7735   -0.0102 C   0  0  0  0  0  0  0  0  0  0  0  0
   -4.6538   -1.3930   -0.9113 O   0  0  0  0  0  0  0  0  0  0  0  0
   -1.6426   -0.4251    0.2003 C   0  0  2  0  0  0  0  0  0  0  0  0
   -0.6067    0.5870   -0.2622 C   0  0  0  0  0  0  0  0  0  0  0  0
   -0.8726    1.8426    0.5714 C   0  0  0  0  0  3  0  0  0  0  0  0
   -0.1282    3.0281    0.0317 C   0  0  0  0  0  0  0  0  0  0  0  0
    1.0301    2.4968   -0.8026 C   0  0  0  0  0  0  0  0  0  0  0  0
    2.3055    2.8418   -0.0713 C   0  0  2  0  0  0  0  0  0  0  0  0
    2.8654    4.1212   -0.6303 C   0  0  0  0  0  0  0  0  0  0  0  0
    3.2684    1.7339   -0.3322 C   0  0  0  0  0  0  0  0  0  0  0  0
    3.8680    1.1762    0.7082 C   0  0  0  0  0  0  0  0  0  0  0  0
    4.8233    0.0898    0.5642 C   0  0  0  0  0  0  0  0  0  0  0  0
    5.7656   -0.0047    1.3625 O   0  0  0  0  0  0  0  0  0  0  0  0
    4.6408   -0.8791   -0.5406 C   0  0  0  0  0  0  0  0  0  0  0  0
    3.8072   -2.0201   -0.0365 C   0  0  0  0  0  0  0  0  0  0  0  0
    2.5018   -2.0490   -0.8053 C   0  0  0  0  0  0  0  0  0  0  0  0
    1.3420   -1.5374   -0.0020 C   0  0  0  0  0  2  0  0  0  0  0  0
    0.6952   -2.5450    0.8631 C   0  0  0  0  0  0  0  0  0  0  0  0
   -0.7615   -2.7448    0.6613 C   0  0  2  0  0  0  0  0  0  0  0  0
   -0.8958   -4.0197   -0.1870 C   0  0  0  0  0  3  0  0  0  0  0  0
   -0.6610   -3.5326   -1.6022 C   0  0  0  0  0  0  0  0  0  0  0  0
   -0.7861   -2.0193   -1.5556 C   0  0  0  0  0  0  0  0  0  0  0  0
   -1.4316   -1.7885   -0.2454 C   0  0  2  0  0  0  0  0  0  0  0  0
  1  2  1  0
  2  3  2  0
  2  4  1  0
  4  5  1  0
  5  6  1  0
  6  7  2  0
  8  5  1  6
  8  9  1  0
  9 10  1  0
 10 11  1  0
 11 12  1  0
 12 13  1  0
 13 14  1  6
 13 15  1  0
 15 16  2  3
 16 17  1  0
 17 18  2  0
 17 19  1  0
 19 20  1  0
 20 21  1  0
 21 22  1  0
 22 23  1  0
 24 23  1  6
 24 25  1  0
 25 26  1  0
 26 27  1  0
 28 27  1  6
 28  8  1  0
 28 24  1  0
M  RAD  4   5   2  10   2  22   3  25   2
M  END
>  <fragInfo>  (1) 
8 9 10 11 12 13 14 15 16 17 18 19 20 21 22 23 24 25 26 27 28
1 2 3
4
5
6 7


>  <torsionInfo>  (1) 
5 8 3 0
2 4 1 2
4 5 2 3
5 6 3 4


>  <atomInfo>  (1) 
1  0.03398655C 
2  0.30328766C 
3  -0.2525925OA
4  -0.4463480OA
5  0.21611759C 
6  0.16822527C 
7  -0.2986743OA
8  0.01372743C 
9  -0.0425961C 
10 -0.0381103C 
11 -0.0496192C 
12 -0.0469409C 
13 -0.0257477C 
14 -0.0589962C 
15 -0.0781701C 
16 -0.0227265C 
17 0.15488134C 
18 -0.2948776OA
19 0.01019290C 
20 -0.0454657C 
21 -0.0460448C 
22 -0.0170249C 
23 -0.0430804C 
24 -0.0344659C 
25 -0.0351574C 
26 -0.0496097C 
27 -0.0494558C 
28 -0.0309813C 


$$$$
