
     RDKit          2D

 77 79  0  0  0  0  0  0  0  0999 V2000
    9.2943    2.5981    0.0000 C   0  0  0  0  0  0  0  0  0  0  0  0
    8.5443    1.2990    0.0000 C   0  0  0  0  0  0  0  0  0  0  0  0
    9.2943    0.0000    0.0000 C   0  0  0  0  0  0  0  0  0  0  0  0
    7.0443    1.2990    0.0000 C   0  0  0  0  0  0  0  0  0  0  0  0
    6.2943    0.0000    0.0000 C   0  0  0  0  0  0  0  0  0  0  0  0
    4.7943    0.0000    0.0000 C   0  0  0  0  0  0  0  0  0  0  0  0
    4.5597   -1.4815    0.0000 C   0  0  0  0  0  0  0  0  0  0  0  0
    5.9863   -1.9451    0.0000 C   0  0  0  0  0  0  0  0  0  0  0  0
    3.8787   -2.8180    0.0000 C   0  0  0  0  0  3  0  0  0  0  0  0
    2.8180   -3.8787    0.0000 C   0  0  0  0  0  0  0  0  0  0  0  0
    1.4815   -4.5597    0.0000 C   0  0  0  0  0  0  0  0  0  0  0  0
   -0.0000   -4.7943    0.0000 C   0  0  0  0  0  0  0  0  0  0  0  0
   -0.0000   -6.2943    0.0000 C   0  0  0  0  0  0  0  0  0  0  0  0
   -1.4815   -4.5597    0.0000 C   0  0  0  0  0  0  0  0  0  0  0  0
   -2.8180   -3.8787    0.0000 C   0  0  0  0  0  0  0  0  0  0  0  0
   -3.6997   -5.0922    0.0000 N   0  0  0  0  0  1  0  0  0  0  0  0
   -3.8787   -2.8180    0.0000 C   0  0  0  0  0  0  0  0  0  0  0  0
   -4.5597   -1.4815    0.0000 C   0  0  0  0  0  0  0  0  0  0  0  0
   -4.7943    0.0000    0.0000 C   0  0  0  0  0  0  0  0  0  0  0  0
   -6.2943    0.0000    0.0000 O   0  0  0  0  0  0  0  0  0  0  0  0
   -4.5597    1.4815    0.0000 C   0  0  0  0  0  0  0  0  0  0  0  0
   -3.8787    2.8180    0.0000 C   0  0  0  0  0  0  0  0  0  0  0  0
   -2.8180    3.8787    0.0000 C   0  0  0  0  0  0  0  0  0  0  0  0
   -3.6997    5.0922    0.0000 C   0  0  0  0  0  0  0  0  0  0  0  0
   -1.4815    4.5597    0.0000 S   0  0  0  0  0  0  0  0  0  0  0  0
    0.0000    4.7943    0.0000 C   0  0  0  0  0  0  0  0  0  0  0  0
    1.4815    4.5597    0.0000 C   0  0  0  0  0  0  0  0  0  0  0  0
    2.8180    3.8787    0.0000 C   0  0  0  0  0  0  0  0  0  0  0  0
    3.8787    2.8180    0.0000 S   0  0  0  0  0  0  0  0  0  0  0  0
    4.5597    1.4815    0.0000 C   0  0  0  0  0  0  0  0  0  0  0  0
    5.9863    1.9451    0.0000 C   0  0  0  0  0  0  0  0  0  0  0  0
    6.2981    3.4123    0.0000 C   0  0  0  0  0  0  0  0  0  0  0  0
    7.7247    3.8758    0.0000 S   0  0  0  0  0  0  0  0  0  0  0  0
    8.0366    5.3430    0.0000 C   0  0  0  0  0  0  0  0  0  0  0  0
    9.4632    5.8066    0.0000 C   0  0  0  0  0  0  0  0  0  0  0  0
    9.7750    7.2738    0.0000 C   0  0  0  0  0  0  0  0  0  0  0  0
   10.5779    4.8029    0.0000 S   0  0  0  0  0  0  0  0  0  0  0  0
   12.0045    5.2664    0.0000 C   0  0  0  0  0  0  0  0  0  0  0  0
   13.1192    4.2627    0.0000 C   0  0  0  0  0  0  0  0  0  0  0  0
   14.5458    4.7262    0.0000 C   0  0  0  0  0  0  0  0  0  0  0  0
   12.8073    2.7955    0.0000 S   0  0  0  0  0  0  0  0  0  0  0  0
   13.9220    1.7918    0.0000 C   0  0  0  0  0  0  0  0  0  0  0  0
   13.6102    0.3245    0.0000 C   0  0  0  0  0  0  0  0  0  0  0  0
   14.7249   -0.6791    0.0000 C   0  0  0  0  0  0  0  0  0  0  0  0
   14.4130   -2.1464    0.0000 C   0  0  0  0  0  0  0  0  0  0  0  0
   15.5277   -3.1501    0.0000 C   0  0  0  0  0  0  0  0  0  0  0  0
   15.2159   -4.6173    0.0000 C   0  0  0  0  0  0  0  0  0  0  0  0
   16.9543   -2.6865    0.0000 C   0  0  0  0  0  0  0  0  0  0  0  0
   18.0690   -3.6902    0.0000 C   0  0  0  0  0  0  0  0  0  0  0  0
   19.4956   -3.2267    0.0000 C   0  0  0  0  0  0  0  0  0  0  0  0
   20.6103   -4.2304    0.0000 C   0  0  0  0  0  0  0  0  0  0  0  0
   22.0369   -3.7669    0.0000 C   0  0  0  0  0  0  0  0  0  0  0  0
   23.1517   -4.7706    0.0000 C   0  0  0  0  0  0  0  0  0  0  0  0
   24.5782   -4.3071    0.0000 C   0  0  0  0  0  0  0  0  0  0  0  0
   25.6930   -5.3107    0.0000 C   0  0  0  0  0  0  0  0  0  0  0  0
   27.1195   -4.8472    0.0000 C   0  0  0  0  0  3  0  0  0  0  0  0
   27.4314   -3.3800    0.0000 S   0  0  0  0  0  0  0  0  0  0  0  0
   28.2343   -5.8509    0.0000 C   0  0  0  0  0  0  0  0  0  0  0  0
   29.6608   -5.3874    0.0000 C   0  0  0  0  0  0  0  0  0  0  0  0
   29.9727   -3.9202    0.0000 S   0  0  0  0  0  0  0  0  0  0  0  0
   30.7756   -6.3911    0.0000 C   0  0  0  0  0  0  0  0  0  0  0  0
   32.2021   -5.9276    0.0000 C   0  0  0  0  0  0  0  0  0  0  0  0
   32.9936   -7.2018    0.0000 C   0  0  0  0  0  0  0  0  0  0  0  0
   32.9815   -8.7017    0.0000 C   0  0  0  0  0  0  0  0  0  0  0  0
   34.2866   -7.9622    0.0000 S   0  0  0  0  0  0  0  0  0  0  0  0
   35.7848   -8.0347    0.0000 C   0  0  0  0  0  3  0  0  0  0  0  0
   36.0730   -9.5067    0.0000 C   0  0  0  0  0  0  0  0  0  0  0  0
   37.1451   -7.4026    0.0000 S   0  0  0  0  0  0  0  0  0  0  0  0
   38.0559   -6.2107    0.0000 C   0  0  0  0  0  0  0  0  0  0  0  0
   38.3084   -4.7321    0.0000 C   0  0  0  0  0  0  0  0  0  0  0  0
   37.8449   -3.3055    0.0000 C   0  0  0  0  0  0  0  0  0  0  0  0
   39.1191   -2.5141    0.0000 S   0  0  0  0  0  0  0  0  0  0  0  0
   36.7715   -2.2578    0.0000 C   0  0  0  0  0  0  0  0  0  0  0  0
   35.3341   -1.8288    0.0000 C   0  0  0  0  0  0  0  0  0  0  0  0
   33.8620   -2.1170    0.0000 C   0  0  0  0  0  0  0  0  0  0  0  0
   32.6925   -3.0563    0.0000 S   0  0  0  0  0  0  0  0  0  0  0  0
   32.0935   -4.4315    0.0000 S   0  0  0  0  0  0  0  0  0  0  0  0
  1  2  1  0
  2  3  1  0
  2  4  1  0
  4  5  1  0
  5  6  1  0
  6  7  1  0
  7  8  1  1
  7  9  1  0
  9 10  1  0
 10 11  1  0
 11 12  1  0
 12 13  1  6
 12 14  1  0
 14 15  1  0
 15 16  1  0
 15 17  1  0
 17 18  1  0
 18 19  1  0
 19 20  1  0
 19 21  1  0
 21 22  1  0
 22 23  1  0
 23 24  1  0
 23 25  1  0
 25 26  1  0
 26 27  1  0
 27 28  1  0
 28 29  1  0
 29 30  1  0
 30 31  2  3
 31 32  1  0
 32 33  1  0
 33 34  1  0
 34 35  1  0
 35 36  1  0
 35 37  1  0
 37 38  1  0
 38 39  1  0
 39 40  1  0
 39 41  1  0
 41 42  1  0
 42 43  1  0
 43 44  1  0
 44 45  1  0
 45 46  1  0
 46 47  1  6
 46 48  1  0
 48 49  1  0
 49 50  1  0
 50 51  1  0
 51 52  1  0
 52 53  1  0
 53 54  1  0
 54 55  1  0
 55 56  1  0
 56 57  1  0
 56 58  1  0
 58 59  1  0
 59 60  1  0
 59 61  1  0
 61 62  1  0
 62 63  1  0
 63 64  1  0
 63 65  1  0
 65 66  1  0
 66 67  1  0
 66 68  1  0
 68 69  1  0
 69 70  1  0
 70 71  1  0
 71 72  1  1
 71 73  1  0
 73 74  3  0
 74 75  1  0
 75 76  1  0
 76 77  1  0
 30  6  1  0
 62 77  2  3
 65 64  1  0
M  CHG  1  16   1
M  RAD  4   9   2  16   2  56   2  66   2
M  END
>  <fragInfo>  (1) 
6 7 8 9 10 11 12 13 14 15 16 17 18 19 20 21 22 23 24 25 26 27 28 29 30 31
1 2 3
4
5
32
33
34
35 36
37
38
39 40
41
42
43
44
45
46 47
48
49
50
51
52
53
54
55
56 57
58
59 60
61
62 63 64 65 66 67 68 69 70 71 72 73 74 75 76 77


>  <torsionInfo>  (1) 
5 6 3 0
31 32 0 4
2 4 1 2
4 5 2 3
32 33 4 5
33 34 5 6
34 35 6 7
35 37 7 8
37 38 8 9
38 39 9 10
39 41 10 11
41 42 11 12
42 43 12 13
43 44 13 14
44 45 14 15
45 46 15 16
46 48 16 17
48 49 17 18
49 50 18 19
50 51 19 20
51 52 20 21
52 53 21 22
53 54 22 23
54 55 23 24
55 56 24 25
56 58 25 26
58 59 26 27
59 61 27 28
61 62 28 29


>  <atomInfo>  (1) 
1  -0.0627732C 
2  -0.0471105C 
3  -0.0627732C 
4  -0.0503635C 
5  -0.0453647C 
6  -0.0076274C 
7  -0.0337611C 
8  -0.0616301C 
9  -0.0351172C 
10 -0.0496380C 
11 -0.0501839C 
12 -0.0378796C 
13 -0.0622665C 
14 0.02100559C 
15 0.27690665C 
16 0.42156756N 
17 0.02089380C 
18 -0.0206163C 
19 0.05426781C 
20 -0.3931262OA
21 -0.0259618C 
22 -0.0390971C 
23 0.00196216C 
24 -0.0533054C 
25 -0.1588435SA
26 -0.0056878C 
27 -0.0346569C 
28 -0.0015384C 
29 -0.1305836SA
30 -0.0150051C 
31 -0.0647560C 
32 0.01241759C 
33 -0.1566689SA
34 0.00524692C 
35 0.01098877C 
36 -0.0525035C 
37 -0.1568715SA
38 0.00523154C 
39 0.01094797C 
40 -0.0525042C 
41 -0.1580146SA
42 -0.0064551C 
43 -0.0441309C 
44 -0.0522665C 
45 -0.0506818C 
46 -0.0442795C 
47 -0.0625097C 
48 -0.0507111C 
49 -0.0530522C 
50 -0.0532960C 
51 -0.0533057C 
52 -0.0533051C 
53 -0.0532551C 
54 -0.0519395C 
55 -0.0372970C 
56 0.02845934C 
57 -0.1710096SA
58 -0.0252596C 
59 0.00729941C 
60 -0.1755212SA
61 -0.0130911C 
62 -0.0267571C 
63 0.02223827C 
64 -0.0088155C 
65 -0.2282456S 
66 0.06330695C 
67 -0.0405722C 
68 -0.1438490SA
69 -0.0033657C 
70 -0.0211554C 
71 0.06347326C 
72 -0.1627269SA
73 -0.0883145C 
74 -0.0903449C 
75 0.06441986C 
76 -0.0904429SA
77 -0.1413958S 


$$$$
