
     RDKit          3D

 32 34  0  0  0  0  0  0  0  0999 V2000
   -1.6302   -0.4012   -3.1044 C   0  0  0  0  0  0  0  0  0  0  0  0
   -2.5452    0.7331   -2.8115 C   0  0  1  0  0  0  0  0  0  0  0  0
   -2.8649    1.5722   -4.0035 C   0  0  0  0  0  0  0  0  0  0  0  0
   -3.7565    0.2433   -2.0657 C   0  0  0  0  0  0  0  0  0  0  0  0
   -4.0083    1.0017   -0.7878 C   0  0  0  0  0  0  0  0  0  0  0  0
   -4.5286    0.0520    0.2760 C   0  0  0  0  0  0  0  0  0  0  0  0
   -3.8789    0.3315    1.5957 C   0  0  1  0  0  0  0  0  0  0  0  0
   -4.8399    0.5861    2.7120 C   0  0  0  0  0  0  0  0  0  0  0  0
   -2.8535   -0.7361    1.9241 C   0  0  0  0  0  3  0  0  0  0  0  0
   -1.9461   -0.3441    3.0503 C   0  0  0  0  0  0  0  0  0  0  0  0
   -0.4819   -0.3765    2.6725 C   0  0  0  0  0  0  0  0  0  0  0  0
   -0.2400    0.2135    1.2991 C   0  0  2  0  0  0  0  0  0  0  0  0
   -1.2181    1.3549    1.1228 C   0  0  0  0  0  0  0  0  0  0  0  0
   -0.5591   -0.8378    0.2928 C   0  0  1  0  0  0  0  0  0  0  0  0
   -0.0575   -0.4240   -1.1036 C   0  0  0  0  0  0  0  0  0  0  0  0
    1.1521    0.3883   -1.0586 C   0  0  1  0  0  0  0  0  0  0  0  0
    2.2294    0.1142   -2.0328 C   0  0  0  0  0  1  0  0  0  0  0  0
    0.8886    2.1732   -0.9958 S   0  0  0  0  0  0  0  0  0  0  0  0
    2.4661    3.0112   -1.1464 C   0  0  0  0  0  0  0  0  0  0  0  0
    3.1015    3.1670    0.2010 C   0  0  0  0  0  0  0  0  0  0  0  0
    4.6124    3.3191    0.0639 C   0  0  0  0  0  0  0  0  0  0  0  0
    5.2268    1.9771   -0.2990 C   0  0  0  0  0  0  0  0  0  0  0  0
    5.0533    1.0062    0.8477 C   0  0  0  0  0  0  0  0  0  0  0  0
    4.8289   -0.6801    0.1715 S   0  0  0  0  0  0  0  0  0  0  0  0
    4.0079   -1.6664    1.4222 C   0  0  0  0  0  0  0  0  0  0  0  0
    2.6023   -2.0967    0.9900 C   0  0  0  0  0  0  0  0  0  0  0  0
    1.7676   -2.1380    2.2428 C   0  0  0  0  0  0  0  0  0  0  0  0
    0.3272   -2.4971    1.9608 C   0  0  0  0  0  0  0  0  0  0  0  0
    0.0171   -2.1739    0.5492 C   0  0  1  0  0  0  0  0  0  0  0  0
   -0.8766   -3.2133   -0.1179 C   0  0  0  0  0  0  0  0  0  0  0  0
   -1.1474   -2.7369   -1.8782 S   0  0  0  0  0  0  0  0  0  0  0  0
   -0.8486   -0.9223   -1.9889 C   0  0  0  0  0  0  0  0  0  0  0  0
  1  2  1  0
  2  3  1  6
  2  4  1  0
  4  5  1  0
  5  6  1  0
  6  7  1  0
  7  8  1  1
  7  9  1  0
  9 10  1  0
 10 11  1  0
 11 12  1  0
 12 13  1  6
 12 14  1  0
 14 15  1  6
 15 16  1  0
 16 17  1  6
 16 18  1  0
 18 19  1  0
 19 20  1  0
 20 21  1  0
 21 22  1  0
 22 23  1  0
 23 24  1  0
 24 25  1  0
 25 26  1  0
 26 27  1  0
 27 28  1  0
 29 28  1  1
 29 30  1  0
 30 31  1  0
 31 32  1  0
 32  1  1  0
 29 14  1  0
 15 32  2  0
M  RAD  2   9   2  17   2
M  END
>  <fragInfo>  (1) 
1 2 3 4 5 6 7 8 9 10 11 12 13 14 15 16 17 18 19 20 21 22 23 24 25 26 27 28 29 30 31 32


>  <torsionInfo>  (1) 


>  <atomInfo>  (1) 
1  -0.0192664C 
2  -0.0397197C 
3  -0.0621730C 
4  -0.0503651C 
5  -0.0527765C 
6  -0.0504262C 
7  -0.0411603C 
8  -0.0622342C 
9  -0.0357401C 
10 -0.0496430C 
11 -0.0498429C 
12 -0.0373083C 
13 -0.0619241C 
14 -0.0118933C 
15 -0.0433839C 
16 0.03450354C 
17 0.01080102C 
18 -0.1534227SA
19 -0.0061269C 
20 -0.0440998C 
21 -0.0517345C 
22 -0.0441224C 
23 -0.0067533C 
24 -0.1620080SA
25 -0.0067536C 
26 -0.0441408C 
27 -0.0522052C 
28 -0.0490326C 
29 -0.0250637C 
30 0.00109894C 
31 -0.1302893SA
32 -0.0143049C 


$$$$
