
     RDKit          3D

 79 81  0  0  0  0  0  0  0  0999 V2000
  -18.4123   -2.0635   -1.3763 C   0  0  0  0  0  0  0  0  0  0  0  0
  -18.2933   -1.0817   -0.2585 C   0  0  1  0  0  0  0  0  0  0  0  0
  -18.3900   -1.6750    1.1095 C   0  0  0  0  0  0  0  0  0  0  0  0
  -17.7365   -0.7779    2.1130 C   0  0  2  0  0  0  0  0  0  0  0  0
  -18.2978   -1.0334    3.3776 O   0  0  0  0  0  0  0  0  0  0  0  0
  -17.9700    0.6889    1.8236 C   0  0  2  0  0  0  0  0  0  0  0  0
  -19.2981    1.0667    2.0019 O   0  0  0  0  0  0  0  0  0  0  0  0
  -17.4586    1.0870    0.4666 C   0  0  1  0  0  0  0  0  0  0  0  0
  -16.3146    1.8659    0.5260 O   0  0  0  0  0  0  0  0  0  0  0  0
  -17.1813   -0.0978   -0.4184 C   0  0  1  0  0  0  0  0  0  0  0  0
  -15.8796   -0.6182   -0.0964 N   0  0  0  0  0  0  0  0  0  0  0  0
  -15.4998   -1.7141   -0.9805 C   0  0  0  0  0  3  0  0  0  0  0  0
  -15.5217   -1.1459   -2.3831 C   0  0  0  0  0  0  0  0  0  0  0  0
  -14.1789   -0.5657   -2.7885 C   0  0  1  0  0  0  0  0  0  0  0  0
  -14.3658   -0.0816   -4.1038 O   0  0  0  0  0  0  0  0  0  0  0  0
  -13.8475    0.6565   -1.9336 C   0  0  0  0  0  0  0  0  0  0  0  0
  -12.6970    1.2752   -2.4093 O   0  0  0  0  0  0  0  0  0  0  0  0
  -11.5766    0.4830   -2.4086 C   0  0  0  0  0  3  0  0  0  0  0  0
  -10.4852    0.9608   -1.5108 C   0  0  1  0  0  0  0  0  0  0  0  0
   -9.9776    2.3320   -1.7971 C   0  0  0  0  0  0  0  0  0  0  0  0
  -10.8758    0.8110   -0.0733 C   0  0  2  0  0  0  0  0  0  0  0  0
   -9.8528    1.2616    0.7602 O   0  0  0  0  0  0  0  0  0  0  0  0
  -11.2288   -0.6399    0.2432 C   0  0  0  0  0  3  0  0  0  0  0  0
  -10.1269   -1.4502   -0.0221 O   0  0  0  0  0  0  0  0  0  0  0  0
   -8.9893   -0.6549   -0.0916 C   0  0  0  0  0  3  0  0  0  0  0  0
   -8.0898   -1.1528   -1.0504 O   0  0  0  0  0  0  0  0  0  0  0  0
   -7.0085   -0.4250   -1.0663 O   0  0  0  0  0  0  0  0  0  0  0  0
   -6.9535    0.4703   -0.1119 O   0  0  0  0  0  0  0  0  0  0  0  0
   -5.7906    0.3696    0.6147 C   0  0  2  0  0  0  0  0  0  0  0  0
   -5.6910    1.5678    1.9158 Cl  0  0  0  0  0  0  0  0  0  0  0  0
   -4.5866    0.5269   -0.2054 N   0  0  0  0  0  0  0  0  0  0  0  0
   -3.4691    0.3901    0.7438 C   0  0  0  0  0  3  0  0  0  0  0  0
   -2.8466   -0.9718    0.4545 C   0  0  2  0  0  0  0  0  0  0  0  0
   -1.7070   -1.2480    1.4178 C   0  0  0  0  0  2  0  0  0  0  0  0
   -2.3339   -0.9810   -0.9791 C   0  0  0  0  0  0  0  0  0  0  0  0
   -1.3320    0.0833   -1.0876 N   0  0  0  0  0  0  0  0  0  0  0  0
   -0.2160   -0.3458   -0.2761 C   0  0  1  0  0  0  0  0  0  0  0  0
    0.5233   -1.5831   -0.6177 C   0  0  0  0  0  3  0  0  0  0  0  0
    1.1924   -0.3037   -0.8575 C   0  0  2  0  0  0  0  0  0  0  0  0
    2.1530    0.2160    0.0273 O   0  0  0  0  0  0  0  0  0  0  0  0
    2.2437   -0.5206    1.1985 C   0  0  0  0  0  0  0  0  0  0  0  0
    3.2108    0.0710    1.9920 O   0  0  0  0  0  0  0  0  0  0  0  0
    3.3159   -0.6407    3.1652 C   0  0  0  0  0  3  0  0  0  0  0  0
    4.6633   -0.6396    3.7984 C   0  0  0  0  0  0  0  0  0  0  0  0
    5.7210    0.1216    3.0749 C   0  0  0  0  0  3  0  0  0  0  0  0
    5.3348    0.7219    1.9042 O   0  0  0  0  0  0  0  0  0  0  0  0
    5.6747    0.0577    0.7514 C   0  0  0  0  0  3  0  0  0  0  0  0
    7.0370   -0.3640    0.6561 N   0  0  0  0  0  0  0  0  0  0  0  0
    7.5555   -0.8179    1.9086 C   0  0  0  0  0  0  0  0  0  0  0  0
    8.9736   -1.2737    1.8571 C   0  0  1  0  0  0  0  0  0  0  0  0
    9.1426   -2.3295    0.9792 O   0  0  0  0  0  0  0  0  0  0  0  0
    9.9404   -0.1667    1.5116 C   0  0  0  0  0  3  0  0  0  0  0  0
    9.2406    1.0871    1.0336 C   0  0  0  0  0  0  0  0  0  0  0  0
    9.9291    2.2421    1.4116 O   0  0  0  0  0  0  0  0  0  0  0  0
   11.1936    2.2769    0.8395 C   0  0  1  0  0  0  0  0  0  0  0  0
   11.2326    3.2273   -0.3404 C   0  0  0  0  0  2  0  0  0  0  0  0
   12.1053    2.7197    1.8122 O   0  0  0  0  0  0  0  0  0  0  0  0
   12.2267    1.8381    2.8124 N   0  0  0  0  0  0  0  0  0  0  0  0
   13.4571    1.1642    2.7645 N   0  0  0  0  0  0  0  0  0  0  0  0
   13.2608   -0.2744    2.6308 C   0  0  2  0  0  0  0  0  0  0  0  0
   12.6735   -0.8230    3.7646 O   0  0  0  0  0  0  0  0  0  0  0  0
   14.6359   -0.8750    2.4042 C   0  0  0  0  0  0  0  0  0  0  0  0
   15.1816   -0.2281    1.1425 C   0  0  2  0  0  0  0  0  0  0  0  0
   14.1316    0.1785    0.3169 O   0  0  0  0  0  0  0  0  0  0  0  0
   16.0697   -1.2483    0.4609 C   0  0  0  0  0  3  0  0  0  0  0  0
   16.6356   -0.7576   -0.7095 O   0  0  0  0  0  0  0  0  0  0  0  0
   15.8423    0.2011   -1.3188 C   0  0  0  0  0  0  0  0  0  0  0  0
   15.4266   -0.2235   -2.7256 C   0  0  2  0  0  0  0  0  0  0  0  0
   16.5145    0.0259   -3.5676 O   0  0  0  0  0  0  0  0  0  0  0  0
   14.2990    0.4910   -3.0926 O   0  0  0  0  0  0  0  0  0  0  0  0
   13.2822   -0.3980   -3.4447 C   0  0  0  0  0  0  0  0  0  0  0  0
   12.0527    0.2056   -3.2507 O   0  0  0  0  0  0  0  0  0  0  0  0
   11.1004   -0.4707   -3.9488 N   0  0  0  0  0  0  0  0  0  0  0  0
   10.1378   -1.0168   -3.0096 C   0  0  2  0  0  0  0  0  0  0  0  0
    8.7481   -0.7304   -3.5266 C   0  0  0  0  0  2  0  0  0  0  0  0
   10.3256   -0.3970   -1.7148 N   0  0  0  0  0  0  0  0  0  0  0  0
   10.4108   -1.3777   -0.7148 N   0  0  0  0  0  0  0  0  0  0  0  0
    9.0983   -1.8368   -0.3129 C   0  0  1  0  0  0  0  0  0  0  0  0
    8.5861   -2.9445   -1.2053 C   0  0  0  0  0  2  0  0  0  0  0  0
  2  1  1  6
  2  3  1  0
  3  4  1  0
  4  5  1  1
  4  6  1  0
  6  7  1  6
  6  8  1  0
  8  9  1  1
  8 10  1  0
 10 11  1  1
 11 12  1  0
 12 13  1  0
 13 14  1  0
 14 15  1  6
 14 16  1  0
 16 17  1  0
 17 18  1  0
 18 19  1  0
 19 20  1  6
 19 21  1  0
 21 22  1  1
 21 23  1  0
 23 24  1  0
 24 25  1  0
 25 26  1  0
 26 27  1  0
 27 28  1  0
 28 29  1  0
 29 30  1  1
 29 31  1  0
 31 32  1  0
 32 33  1  0
 33 34  1  1
 33 35  1  0
 35 36  1  0
 37 36  1  6
 37 38  1  0
 37 39  1  0
 39 40  1  1
 40 41  1  0
 41 42  1  0
 42 43  1  0
 43 44  1  0
 44 45  1  0
 45 46  1  0
 46 47  1  0
 47 48  1  0
 48 49  1  0
 50 49  1  6
 50 51  1  0
 50 52  1  0
 52 53  1  0
 53 54  1  0
 54 55  1  0
 55 56  1  6
 55 57  1  0
 57 58  1  0
 58 59  1  0
 59 60  1  0
 60 61  1  1
 60 62  1  0
 62 63  1  0
 63 64  1  6
 63 65  1  0
 65 66  1  0
 66 67  1  0
 67 68  1  0
 68 69  1  6
 68 70  1  0
 70 71  1  0
 71 72  1  0
 72 73  1  0
 73 74  1  0
 74 75  1  6
 74 76  1  0
 76 77  1  0
 77 78  1  0
 78 79  1  6
 10  2  1  0
 39 38  1  0
 78 51  1  0
M  RAD  8  12   2  18   2  23   2  25   2  32   2  34   3  38   2  43   2
M  RAD  7  45   2  47   2  52   2  56   3  65   2  75   3  79   3
M  END
>  <fragInfo>  (1) 
50 51 52 53 54 55 56 57 58 59 60 61 62 63 64 65 66 67 68 69 70 71 72 73 74 75 76 77 78 79
1 2 3 4 5 6 7 8 9 10
11
12
13
14 15
16
17
18
19 20
21 22
23
24
25
26
27
28
29 30
31
32
33 34
35
36
37 38 39
40
41
42
43
44
45
46
47
48
49


>  <torsionInfo>  (1) 
49 50 33 0
10 11 1 2
11 12 2 3
12 13 3 4
13 14 4 5
14 16 5 6
16 17 6 7
17 18 7 8
18 19 8 9
19 21 9 10
21 23 10 11
23 24 11 12
24 25 12 13
25 26 13 14
26 27 14 15
27 28 15 16
28 29 16 17
29 31 17 18
31 32 18 19
32 33 19 20
33 35 20 21
35 36 21 22
36 37 22 23
39 40 23 24
40 41 24 25
41 42 25 26
42 43 26 27
43 44 27 28
44 45 28 29
45 46 29 30
46 47 30 31
47 48 31 32
48 49 32 33


>  <atomInfo>  (1) 
1  -0.0608233C 
2  -0.0236285C 
3  -0.0201755C 
4  0.08280077C 
5  -0.3903155OA
6  0.10722522C 
7  -0.3876533OA
8  0.09792914C 
9  -0.3886791OA
10 0.03839079C 
11 -0.3066602NA
12 0.02510549C 
13 -0.0077137C 
14 0.07888051C 
15 -0.3906650OA
16 0.07314131C 
17 -0.3724391OA
18 0.08922141C 
19 0.01351248C 
20 -0.0573331C 
21 0.08805954C 
22 -0.3899274OA
23 0.11597270C 
24 -0.3366627OA
25 0.24916277C 
26 -0.1680538OA
27 -0.0622023OA
28 -0.1699862OA
29 0.22173995C 
30 -0.0709118Cl
31 -0.2718618NA
32 0.03048129C 
33 -0.0083381C 
34 -0.0288201C 
35 0.00016443C 
36 -0.3107372NA
37 0.03934118C 
38 0.01157563C 
39 0.08082411C 
40 -0.3501833OA
41 0.14719260C 
42 -0.3493781OA
43 0.08927260C 
44 0.00509427C 
45 0.08868705C 
46 -0.3530873OA
47 0.14823188C 
48 -0.2861779NA
49 0.02450527C 
50 0.07762291C 
51 -0.3568516OA
52 0.01754687C 
53 0.05563998C 
54 -0.3500205OA
55 0.18205464C 
56 0.02821529C 
57 -0.2548725OA
58 -0.1317428NA
59 -0.2066403NA
60 0.12127365C 
61 -0.3771852OA
62 0.01669194C 
63 0.08663594C 
64 -0.3901564OA
65 0.11238647C 
66 -0.3674294OA
67 0.09820890C 
68 0.18060739C 
69 -0.3659522OA
70 -0.3224516OA
71 0.16967596C 
72 -0.2717401OA
73 -0.1810797NA
74 0.09757166C 
75 0.00283938C 
76 -0.2360838NA
77 -0.2283767NA
78 0.12405559C 
79 0.01387093C 


$$$$
