
     RDKit          3D

  9  8  0  0  0  0  0  0  0  0999 V2000
    3.3309   -0.1789   -0.1706 C   0  0  0  0  0  0  0  0  0  0  0  0
    2.3293    0.6066    0.3778 O   0  0  0  0  0  0  0  0  0  0  0  0
    1.5161   -0.2280    1.1470 C   0  0  0  0  0  3  0  0  0  0  0  0
    0.5598   -0.8041    0.3285 O   0  0  0  0  0  0  0  0  0  0  0  0
   -0.6989   -0.2377    0.5398 C   0  0  2  0  0  0  0  0  0  0  0  0
   -1.6611   -0.9512   -0.3733 C   0  0  0  0  0  0  0  0  0  0  0  0
   -2.8799   -1.2183    0.2170 O   0  0  0  0  0  0  0  0  0  0  0  0
   -0.6222    1.2440    0.2403 C   0  0  0  0  0  3  0  0  0  0  0  0
   -1.8738    1.7675   -0.0610 O   0  0  0  0  0  0  0  0  0  0  0  0
  1  2  1  0
  2  3  1  0
  3  4  1  0
  4  5  1  0
  5  6  1  6
  6  7  1  0
  5  8  1  0
  8  9  1  0
M  RAD  2   3   2   8   2
M  END
>  <fragInfo>  (1) 
1 2
3
4
5
6 7
8 9


>  <torsionInfo>  (1) 
2 3 0 1
3 4 1 2
4 5 2 3
5 6 3 4
5 8 3 5


>  <atomInfo>  (1) 
1  0.03885653C 
2  -0.3513291OA
3  0.20911861C 
4  -0.3393400OA
5  0.11238243C 
6  0.07213388C 
7  -0.3935665OA
8  0.11099646C 
9  -0.3874995OA


$$$$
