
     RDKit          3D

 28 29  0  0  0  0  0  0  0  0999 V2000
    1.4251   -2.7265    0.8076 C   0  0  0  0  0  0  0  0  0  0  0  0
    1.0727   -2.6532   -0.6103 C   0  0  0  0  0  0  0  0  0  0  0  0
    0.0475   -2.0434   -1.1641 C   0  0  0  0  0  0  0  0  0  0  0  0
   -0.0947   -2.1455   -2.9376 Cl  0  0  0  0  0  0  0  0  0  0  0  0
   -0.9694   -1.3035   -0.4466 C   0  0  0  0  0  0  0  0  0  0  0  0
   -0.8296   -0.4162    0.4833 C   0  0  0  0  0  0  0  0  0  0  0  0
    0.4942   -0.0030    0.9827 C   0  0  0  0  0  0  0  0  0  0  0  0
    1.3731    0.2369   -0.2102 C   0  0  0  0  0  0  0  0  0  0  0  0
    2.6747    0.0379   -0.1558 C   0  0  0  0  0  0  0  0  0  0  0  0
    3.7139    0.3308   -1.6045 S   0  0  0  0  0  0  0  0  0  0  0  0
    5.4536   -0.0087   -1.2021 C   0  0  0  0  0  0  0  0  0  0  0  0
    5.9290    1.0121   -0.2123 C   0  0  0  0  0  0  0  0  0  0  0  0
    7.3432    0.7581    0.1648 C   0  0  0  0  0  0  0  0  0  0  0  0
    7.6666   -0.3439    0.6322 O   0  0  0  0  0  0  0  0  0  0  0  0
    3.3765   -0.5279    1.3923 S   0  0  0  0  0  0  0  0  0  0  0  0
    3.7438   -2.2750    1.3016 C   0  0  0  0  0  0  0  0  0  0  0  0
    2.8150   -3.1814    1.0359 C   0  0  0  0  0  0  0  0  0  0  0  0
   -1.9631    0.2429    1.1053 N   0  0  0  0  0  0  0  0  0  0  0  0
   -3.0815    0.5539    0.2619 C   0  0  0  0  0  0  0  0  0  0  0  0
   -3.0674    0.2563   -1.0875 C   0  0  0  0  0  0  0  0  0  0  0  0
   -4.1238    0.5555   -1.8912 C   0  0  0  0  0  0  0  0  0  0  0  0
   -5.2482    1.1750   -1.3494 C   0  0  0  0  0  0  0  0  0  0  0  0
   -6.7191    1.5838   -2.5020 Br  0  0  0  0  0  0  0  0  0  0  0  0
   -5.2700    1.4759   -0.0049 C   0  0  0  0  0  0  0  0  0  0  0  0
   -4.1875    1.1655    0.8010 C   0  0  0  0  0  0  0  0  0  0  0  0
   -4.2120    1.4837    2.2490 C   0  0  0  0  0  0  0  0  0  0  0  0
   -3.3624    2.6883    2.5504 C   0  0  0  0  0  0  0  0  0  0  0  0
   -4.0004    4.0716    1.6106 Cl  0  0  0  0  0  0  0  0  0  0  0  0
  1  2  1  0
  2  3  2  3
  3  4  1  0
  3  5  1  0
  5  6  2  3
  6  7  1  0
  7  8  1  0
  8  9  2  3
  9 10  1  0
 10 11  1  0
 11 12  1  0
 12 13  1  0
 13 14  2  0
  9 15  1  0
 15 16  1  0
 16 17  2  3
  6 18  1  0
 18 19  1  0
 19 20  2  0
 20 21  1  0
 21 22  2  0
 22 23  1  0
 22 24  1  0
 24 25  2  0
 25 26  1  0
 26 27  1  0
 27 28  1  0
 17  1  1  0
 25 19  1  0
M  END
>  <fragInfo>  (1) 
1 2 3 4 5 6 7 8 9 15 16 17
10
11
12
13 14
18
19 20 21 22 23 24 25
26
27 28


>  <torsionInfo>  (1) 
6 18 0 5
9 10 0 1
10 11 1 2
11 12 2 3
12 13 3 4
18 19 5 6
25 26 6 7
26 27 7 8


>  <atomInfo>  (1) 
1  -0.0143141C 
2  -0.0619393C 
3  0.03861615C 
4  -0.0846135Cl
5  -0.0241385C 
6  0.02044536C 
7  0.00746251C 
8  -0.0582182C 
9  0.04074028C 
10 -0.1188180SA
11 0.00513735C 
12 0.01247899C 
13 0.12032581C 
14 -0.3033697OA
15 -0.0917262SA
16 -0.0273842C 
17 -0.0739851C 
18 -0.3583654N 
19 0.04151718A 
20 -0.0372191A 
21 -0.0458931A 
22 0.01790220A 
23 -0.0508264Br
24 -0.0426432A 
25 -0.0221718A 
26 -0.0121304C 
27 0.02641919C 
28 -0.1263554Cl


$$$$
