
     RDKit          3D

 24 25  0  0  0  0  0  0  0  0999 V2000
   -2.0160    0.7404    2.8860 C   0  0  0  0  0  0  0  0  0  0  0  0
   -2.7590    0.6340    1.5911 C   0  0  0  0  0  3  0  0  0  0  0  0
   -1.8454    0.9462    0.3993 C   0  0  2  0  0  0  0  0  0  0  0  0
   -2.6201    0.8318   -0.8963 C   0  0  2  0  0  0  0  0  0  0  0  0
   -3.4889    1.8813   -1.0908 O   0  0  0  0  0  0  0  0  0  0  0  0
   -3.3268   -0.5158   -0.8561 C   0  0  2  0  0  0  0  0  0  0  0  0
   -4.6353   -0.2400   -0.3970 O   0  0  0  0  0  0  0  0  0  0  0  0
   -2.6533   -1.3210    0.2378 C   0  0  1  0  0  0  0  0  0  0  0  0
   -3.2070   -2.5864    0.3031 O   0  0  0  0  0  0  0  0  0  0  0  0
   -1.2667   -1.3425    0.0967 O   0  0  0  0  0  0  0  0  0  0  0  0
   -0.7684   -0.0944    0.3836 C   0  0  1  0  0  0  0  0  0  0  0  0
    0.3248    0.3327   -0.5730 C   0  0  1  0  0  0  0  0  0  0  0  0
    0.9357    1.6183   -0.1901 C   0  0  1  0  0  0  0  0  0  0  0  0
    0.5258    2.1654    1.1336 C   0  0  0  0  0  0  0  0  0  0  0  0
    2.2895    1.7170   -0.3344 O   0  0  0  0  0  0  0  0  0  0  0  0
    2.8942    1.3005    0.8514 C   0  0  0  0  0  3  0  0  0  0  0  0
    3.2991   -0.0169    0.6571 O   0  0  0  0  0  0  0  0  0  0  0  0
    3.6686   -0.1193   -0.6991 C   0  0  1  0  0  0  0  0  0  0  0  0
    4.7502   -0.9818   -0.8604 O   0  0  0  0  0  0  0  0  0  0  0  0
    2.4920   -0.4839   -1.5462 C   0  0  2  0  0  0  0  0  0  0  0  0
    2.2572    0.3654   -2.5985 O   0  0  0  0  0  0  0  0  0  0  0  0
    1.2543   -0.8043   -0.7808 C   0  0  1  0  0  0  0  0  0  0  0  0
    1.5335   -1.5251    0.3651 O   0  0  0  0  0  0  0  0  0  0  0  0
    2.3620   -2.5017    0.0625 O   0  0  0  0  0  0  0  0  0  0  0  0
  1  2  1  0
  3  2  1  1
  3  4  1  0
  4  5  1  1
  4  6  1  0
  6  7  1  1
  6  8  1  0
  8  9  1  6
  8 10  1  0
 11 10  1  6
 11 12  1  0
 12 13  1  1
 13 14  1  1
 13 15  1  0
 15 16  1  0
 16 17  1  0
 17 18  1  0
 18 19  1  1
 18 20  1  0
 20 21  1  6
 20 22  1  0
 22 23  1  1
 23 24  1  0
 11  3  1  0
 22 12  1  0
M  RAD  2   2   2  16   2
M  END
>  <fragInfo>  (1) 
12 13 14 15 16 17 18 19 20 21 22
1 2
3 4 5 6 7 8 9 10 11
23 24


>  <torsionInfo>  (1) 
11 12 2 0
22 23 0 3
2 3 1 2


>  <atomInfo>  (1) 
1  -0.0617809C 
2  -0.0333182C 
3  0.01728840C 
4  0.09044031C 
5  -0.3898176OA
6  0.13077459C 
7  -0.3850909OA
8  0.18325206C 
9  -0.3657353OA
10 -0.3458902OA
11 0.07441642C 
12 0.04396151C 
13 0.06608477C 
14 -0.0380705C 
15 -0.3443445OA
16 0.21194149C 
17 -0.3157488OA
18 0.18640516C 
19 -0.3656542OA
20 0.13443447C 
21 -0.3849447OA
22 0.13122728C 
23 -0.2326386OA
24 -0.2514245OA


$$$$
