
     RDKit          3D

 26 29  0  0  0  0  0  0  0  0999 V2000
   -2.3126    0.3624   -0.5362 C   0  0  0  0  0  0  0  0  0  0  0  0
   -3.7226    0.7924   -0.2557 C   0  0  0  0  0  3  0  0  0  0  0  0
   -4.6410    0.5745   -1.4519 C   0  0  0  0  0  0  0  0  0  0  0  0
   -6.0184    1.0458   -1.0437 C   0  0  0  0  0  0  0  0  0  0  0  0
   -6.5569    0.3365    0.1558 C   0  0  1  0  0  0  0  0  0  0  0  0
   -6.8019   -1.0129   -0.0935 O   0  0  0  0  0  0  0  0  0  0  0  0
   -5.5827    0.4973    1.2963 C   0  0  0  0  0  0  0  0  0  0  0  0
   -4.2642   -0.0837    0.8609 C   0  0  2  0  0  0  0  0  0  0  0  0
   -3.2557   -0.1028    1.9628 C   0  0  0  0  0  0  0  0  0  0  0  0
   -2.1525   -0.8349    1.5437 O   0  0  0  0  0  0  0  0  0  0  0  0
   -2.0909   -0.9663    0.1581 C   0  0  2  0  0  0  0  0  0  0  0  0
   -0.7669   -1.5701   -0.1868 C   0  0  0  0  0  0  0  0  0  0  0  0
    0.3799   -0.6568    0.2190 C   0  0  0  0  0  0  0  0  0  0  0  0
    1.7126   -1.2425   -0.1174 C   0  0  2  0  0  0  0  0  0  0  0  0
    1.9996   -2.5534    0.5410 C   0  0  0  0  0  0  0  0  0  0  0  0
    2.8064   -0.2432    0.1064 C   0  0  2  0  0  0  0  0  0  0  0  0
    4.1404   -0.8559   -0.2391 C   0  0  0  0  0  0  0  0  0  0  0  0
    5.1986    0.1869    0.0031 C   0  0  1  0  0  0  0  0  0  0  0  0
    6.5851   -0.2769   -0.2975 C   0  0  0  0  0  0  0  0  0  0  0  0
    6.7890    0.0985   -1.7313 C   0  0  0  0  0  3  0  0  0  0  0  0
    5.5686    0.9223   -2.0748 C   0  0  0  0  0  0  0  0  0  0  0  0
    5.0188    1.2684   -0.8425 O   0  0  0  0  0  0  0  0  0  0  0  0
    2.7435    0.2647    1.8539 S   0  0  0  0  0  0  0  0  0  0  0  0
    1.3701    1.4772    1.7813 C   0  0  0  0  0  0  0  0  0  0  0  0
    1.2192    1.6640   -0.0379 S   0  0  0  0  0  0  0  0  0  0  0  0
    2.6346    0.9085   -0.6342 O   0  0  0  0  0  0  0  0  0  0  0  0
  1  2  1  0
  2  3  1  0
  3  4  1  0
  4  5  1  0
  5  6  1  6
  5  7  1  0
  8  7  1  1
  8  9  1  0
  9 10  1  0
 10 11  1  0
 11 12  1  1
 12 13  1  0
 13 14  1  0
 14 15  1  1
 14 16  1  0
 16 17  1  6
 18 17  1  6
 18 19  1  0
 19 20  1  0
 20 21  1  0
 21 22  1  0
 16 23  1  0
 23 24  1  0
 24 25  1  0
 25 26  1  0
 11  1  1  0
  8  2  1  0
 26 16  1  0
 22 18  1  0
M  RAD  2   2   2  20   2
M  END
>  <fragInfo>  (1) 
1 2 3 4 5 6 7 8 9 10 11
12
13
14 15
16 23 24 25 26
17
18 19 20 21 22


>  <torsionInfo>  (1) 
11 12 0 1
12 13 1 2
13 14 2 3
14 16 3 4
16 17 4 5
17 18 5 6


>  <atomInfo>  (1) 
1  -0.0201439C 
2  -0.0159748C 
3  -0.0441442C 
4  -0.0264336C 
5  0.05437606C 
6  -0.3931181OA
7  -0.0214063C 
8  -0.0090691C 
9  0.05040523C 
10 -0.3778885OA
11 0.05806008C 
12 -0.0263191C 
13 -0.0445932C 
14 -0.0039443C 
15 -0.0588490C 
16 0.13380704C 
17 0.01373672C 
18 0.06149866C 
19 -0.0211885C 
20 -0.0102369C 
21 0.05020698C 
22 -0.3777590OA
23 -0.1122063SA
24 0.06848458C 
25 0.00390986SA
26 -0.2968161OA


$$$$
