
     RDKit          3D

 26 26  0  0  0  0  0  0  0  0999 V2000
   -4.6689   -1.7009    1.2328 C   0  0  0  0  0  0  0  0  0  0  0  0
   -4.8440   -0.5973    0.2132 C   0  0  1  0  0  0  0  0  0  0  0  0
   -5.8052    0.4636    0.6793 C   0  0  0  0  0  0  0  0  0  0  0  0
   -5.9103    1.5156   -0.3893 C   0  0  2  0  0  0  0  0  0  0  0  0
   -7.2070    1.8674   -0.6816 O   0  0  0  0  0  0  0  0  0  0  0  0
   -5.0865    1.1878   -1.6165 C   0  0  2  0  0  0  0  0  0  0  0  0
   -5.5114   -0.0053   -2.1569 O   0  0  0  0  0  0  0  0  0  0  0  0
   -3.6437    1.0790   -1.1620 C   0  0  1  0  0  0  0  0  0  0  0  0
   -3.2874    2.3200   -0.6113 O   0  0  0  0  0  0  0  0  0  0  0  0
   -3.5185   -0.0134   -0.1476 C   0  0  1  0  0  0  0  0  0  0  0  0
   -2.7975    0.4759    1.0041 N   0  0  0  0  0  0  0  0  0  0  0  0
   -1.5368    1.0207    0.5756 C   0  0  0  0  0  3  0  0  0  0  0  0
   -0.6374   -0.0983    0.1346 C   0  0  0  0  0  0  0  0  0  0  0  0
    0.7078    0.3813   -0.3319 C   0  0  2  0  0  0  0  0  0  0  0  0
    0.6183    1.2517   -1.4149 O   0  0  0  0  0  0  0  0  0  0  0  0
    1.5362   -0.8367   -0.7012 C   0  0  0  0  0  3  0  0  0  0  0  0
    2.7717   -0.3673   -1.1283 O   0  0  0  0  0  0  0  0  0  0  0  0
    3.5801   -1.4624   -1.4019 C   0  0  0  0  0  0  0  0  0  0  0  0
    3.7537   -2.2442   -0.2854 O   0  0  0  0  0  0  0  0  0  0  0  0
    4.3572   -1.5330    0.7668 C   0  0  2  0  0  0  0  0  0  0  0  0
    3.5652   -0.4360    1.1342 O   0  0  0  0  0  0  0  0  0  0  0  0
    5.6930   -0.9542    0.3221 C   0  0  2  0  0  0  0  0  0  0  0  0
    6.5834   -1.9336   -0.0806 O   0  0  0  0  0  0  0  0  0  0  0  0
    6.2289   -0.1328    1.4734 C   0  0  0  0  0  3  0  0  0  0  0  0
    7.4571    0.4265    1.1261 O   0  0  0  0  0  0  0  0  0  0  0  0
    7.6021    0.3259   -0.2004 N   0  0  0  0  0  0  0  0  0  0  0  0
  2  1  1  1
  2  3  1  0
  3  4  1  0
  4  5  1  6
  4  6  1  0
  6  7  1  1
  6  8  1  0
  8  9  1  1
  8 10  1  0
 10 11  1  1
 11 12  1  0
 12 13  1  0
 13 14  1  0
 14 15  1  6
 14 16  1  0
 16 17  1  0
 17 18  1  0
 18 19  1  0
 19 20  1  0
 20 21  1  6
 20 22  1  0
 22 23  1  1
 22 24  1  0
 24 25  1  0
 25 26  1  0
 10  2  1  0
M  RAD  3  12   2  16   2  24   2
M  END
>  <fragInfo>  (1) 
1 2 3 4 5 6 7 8 9 10
11
12
13
14 15
16
17
18
19
20 21
22 23
24
25 26


>  <torsionInfo>  (1) 
10 11 0 1
11 12 1 2
12 13 2 3
13 14 3 4
14 16 4 5
16 17 5 6
17 18 6 7
18 19 7 8
19 20 8 9
20 22 9 10
22 24 10 11
24 25 11 12


>  <atomInfo>  (1) 
1  -0.0608233C 
2  -0.0236285C 
3  -0.0201755C 
4  0.08280077C 
5  -0.3903155OA
6  0.10722522C 
7  -0.3876533OA
8  0.09792914C 
9  -0.3886791OA
10 0.03839079C 
11 -0.3066599NA
12 0.02511904C 
13 -0.0073174C 
14 0.08447143C 
15 -0.3902502OA
16 0.11500930C 
17 -0.3465476OA
18 0.15015856C 
19 -0.3239472OA
20 0.18588518C 
21 -0.3656651OA
22 0.13553485C 
23 -0.3848931OA
24 0.14028858C 
25 -0.2954220OA
26 -0.2152778NA


$$$$
