
     RDKit          3D

 31 32  0  0  0  0  0  0  0  0999 V2000
  -10.7827    0.5034    2.0037 C   0  0  0  0  0  0  0  0  0  0  0  0
   -9.4086    0.9158    1.5320 C   0  0  0  0  0  0  0  0  0  0  0  0
   -8.8830    1.9943    2.4784 C   0  0  0  0  0  0  0  0  0  0  0  0
   -8.5181   -0.3081    1.5946 C   0  0  0  0  0  0  0  0  0  0  0  0
   -7.1077   -0.0065    1.1398 C   0  0  0  0  0  0  0  0  0  0  0  0
   -6.3252   -1.2976    1.2490 C   0  0  0  0  0  0  0  0  0  0  0  0
   -4.8806   -0.9817    0.7805 C   0  0  1  0  0  0  0  0  0  0  0  0
   -4.0894   -2.2903    0.8915 C   0  0  0  0  0  0  0  0  0  0  0  0
   -4.8896   -0.3880   -0.5622 C   0  0  0  0  0  3  0  0  0  0  0  0
   -3.6725    0.1670   -1.0749 C   0  0  0  0  0  0  0  0  0  0  0  0
   -2.4943   -0.6239   -1.2455 C   0  0  0  0  0  0  0  0  0  0  0  0
   -1.8062   -1.2554   -0.0866 C   0  0  2  0  0  0  0  0  0  0  0  0
   -1.3377   -0.2253    0.9172 C   0  0  0  0  0  0  0  0  0  0  0  0
   -0.5857   -1.9942   -0.5862 C   0  0  0  0  0  0  0  0  0  0  0  0
    0.3120   -0.9685   -1.2585 C   0  0  0  0  0  0  0  0  0  0  0  0
    1.5702   -1.6142   -1.7984 C   0  0  1  0  0  0  0  0  0  0  0  0
    1.1236   -2.6186   -2.7699 N   0  0  0  0  0  0  0  0  0  0  0  0
    2.3259   -0.5562   -2.5721 C   0  0  0  0  0  0  0  0  0  0  0  0
    2.6589    0.5676   -1.6244 C   0  0  0  0  0  0  0  0  0  0  0  0
    3.5169   -0.0322   -0.5228 C   0  0  1  0  0  0  0  0  0  0  0  0
    2.7865   -1.1231    0.2133 C   0  0  0  0  0  1  0  0  0  0  0  0
    4.8410   -0.5210   -1.0755 C   0  0  0  0  0  3  0  0  0  0  0  0
    5.5331   -1.3236   -0.2058 O   0  0  0  0  0  0  0  0  0  0  0  0
    5.6468    0.5728   -1.7021 C   0  0  1  0  0  0  0  0  0  0  0  0
    5.0010    1.8011   -1.8509 O   0  0  0  0  0  0  0  0  0  0  0  0
    6.0247    1.7080   -0.7751 C   0  0  1  0  0  0  0  0  0  0  0  0
    5.3329    1.8365    0.5638 C   0  0  1  0  0  0  0  0  0  0  0  0
    5.3913    0.7801    1.5779 C   0  0  0  0  0  0  0  0  0  0  0  0
    6.1239    2.1126    1.7825 C   0  0  1  0  0  0  0  0  0  0  0  0
    7.9205    1.9603    1.8026 S   0  0  0  0  0  0  0  0  0  0  0  0
    8.6721    3.2090    0.7269 C   0  0  0  0  0  1  0  0  0  0  0  0
  1  2  1  0
  2  3  1  0
  2  4  1  0
  4  5  1  0
  5  6  1  0
  6  7  1  0
  7  8  1  6
  7  9  1  0
  9 10  1  0
 10 11  1  0
 11 12  1  0
 12 13  1  1
 12 14  1  0
 14 15  1  0
 15 16  1  0
 16 17  1  6
 16 18  1  0
 18 19  1  0
 19 20  1  0
 20 21  1  6
 20 22  1  0
 22 23  1  0
 24 22  1  1
 24 25  1  0
 26 25  1  6
 26 27  1  0
 27 28  1  1
 28 29  1  0
 29 30  1  6
 30 31  1  0
 26 24  1  0
 29 27  1  0
M  RAD  4   9   2  21   2  22   2  31   2
M  END
>  <fragInfo>  (1) 
1 2 3
4
5
6
7 8
9
10
11
12 13
14
15
16 17
18
19
20 21
22 23
24 25 26
27 28 29
30 31


>  <torsionInfo>  (1) 
2 4 0 1
4 5 1 2
5 6 2 3
6 7 3 4
7 9 4 5
9 10 5 6
10 11 6 7
11 12 7 8
12 14 8 9
14 15 9 10
15 16 10 11
16 18 11 12
18 19 12 13
19 20 13 14
20 22 14 15
22 24 15 16
26 27 16 17
29 30 17 18


>  <atomInfo>  (1) 
1  -0.0627736C 
2  -0.0471324C 
3  -0.0627736C 
4  -0.0509643C 
5  -0.0527983C 
6  -0.0504266C 
7  -0.0411603C 
8  -0.0622342C 
9  -0.0357404C 
10 -0.0496646C 
11 -0.0504260C 
12 -0.0442121C 
13 -0.0625085C 
14 -0.0492377C 
15 -0.0377351C 
16 0.00390023C 
17 -0.3277113NA
18 -0.0375931C 
19 -0.0454095C 
20 0.00072951C 
21 -0.0023759C 
22 0.12816622C 
23 -0.3835998OA
24 0.11633725C 
25 -0.3659676OA
26 0.09117819C 
27 0.00074685C 
28 -0.0343937C 
29 0.01126314C 
30 -0.1466039SA
31 0.06895822C 


$$$$
