
     RDKit          3D

 31 34  0  0  0  0  0  0  0  0999 V2000
   -1.6156   -1.9747   -0.8855 C   0  0  1  0  0  0  0  0  0  0  0  0
   -1.8788   -2.7502    0.3478 C   0  0  0  0  0  0  0  0  0  0  0  0
   -1.3864   -2.1094    1.6105 C   0  0  0  0  0  0  0  0  0  0  0  0
   -2.5777   -1.4773    2.2899 C   0  0  0  0  0  0  0  0  0  0  0  0
   -3.5035   -0.9643    1.2069 C   0  0  1  0  0  0  0  0  0  0  0  0
   -4.0384   -2.0847    0.5667 O   0  0  0  0  0  0  0  0  0  0  0  0
   -4.6855   -0.2190    1.8040 C   0  0  2  0  0  0  0  0  0  0  0  0
   -5.7026   -0.0709    0.6932 C   0  0  0  0  0  0  0  0  0  0  0  0
   -4.3130    1.1574    2.2742 C   0  0  0  0  0  0  0  0  0  0  0  0
   -3.6388    1.8796    1.1018 C   0  0  2  0  0  0  0  0  0  0  0  0
   -4.4251    2.9883    0.8077 O   0  0  0  0  0  0  0  0  0  0  0  0
   -3.5808    1.0785   -0.0237 O   0  0  0  0  0  0  0  0  0  0  0  0
   -2.7778   -0.0503    0.2780 C   0  0  2  0  0  0  0  0  0  0  0  0
   -2.2988   -0.6514   -0.9824 C   0  0  2  0  0  0  0  0  0  0  0  0
   -2.9677   -0.3588   -2.1400 O   0  0  0  0  0  0  0  0  0  0  0  0
   -1.3686    0.3015    0.6525 C   0  0  2  0  0  0  0  0  0  0  0  0
   -1.1574    1.5882    1.0916 O   0  0  0  0  0  0  0  0  0  0  0  0
   -0.9624    0.0180   -0.7580 C   0  0  2  0  0  0  0  0  0  0  0  0
   -0.6327    1.1752   -1.6409 C   0  0  0  0  0  0  0  0  0  0  0  0
   -0.3134   -1.2767   -1.0524 C   0  0  1  0  0  0  0  0  0  0  0  0
    0.7751   -1.6877   -0.2597 O   0  0  0  0  0  0  0  0  0  0  0  0
    1.9793   -0.9906   -0.4443 C   0  0  0  0  0  0  0  0  0  0  0  0
    2.0201   -0.0355   -1.3098 O   0  0  0  0  0  0  0  0  0  0  0  0
    3.2076   -1.2695    0.2776 C   0  0  0  0  0  0  0  0  0  0  0  0
    4.2769   -0.4861   -0.0239 C   0  0  0  0  0  0  0  0  0  0  0  0
    4.1752    0.5398   -0.9902 C   0  0  0  0  0  0  0  0  0  0  0  0
    4.7274    1.4295   -1.5817 C   0  0  0  0  0  0  0  0  0  0  0  0
    6.2913    2.2003   -1.6787 S   0  0  0  0  0  0  0  0  0  0  0  0
    7.6284    1.1549   -1.5729 O   0  0  0  0  0  0  0  0  0  0  0  0
    8.8104    1.8676   -1.8864 C   0  0  0  0  0  0  0  0  0  0  0  0
    9.9331    1.0783   -1.8186 O   0  0  0  0  0  0  0  0  0  0  0  0
  1  2  1  1
  2  3  1  0
  3  4  1  0
  4  5  1  0
  5  6  1  6
  5  7  1  0
  7  8  1  6
  7  9  1  0
  9 10  1  0
 10 11  1  6
 10 12  1  0
 13 12  1  6
 13 14  1  0
 14 15  1  6
 13 16  1  0
 16 17  1  6
 16 18  1  0
 18 19  1  6
 18 20  1  0
 20 21  1  1
 21 22  1  0
 22 23  2  0
 22 24  1  0
 24 25  2  3
 25 26  1  0
 26 27  2  3
 27 28  1  0
 28 29  1  0
 29 30  1  0
 30 31  1  0
 14  1  1  0
 20  1  1  0
 13  5  1  0
 18 14  1  0
M  END
>  <fragInfo>  (1) 
1 2 3 4 5 6 7 8 9 10 11 12 13 14 15 16 17 18 19 20
21
22 23
24 25
26 27
28
29
30 31


>  <torsionInfo>  (1) 
20 21 0 1
21 22 1 2
22 24 2 3
25 26 3 4
27 28 4 5
28 29 5 6
29 30 6 7


>  <atomInfo>  (1) 
1  0.02947012C 
2  -0.0438570C 
3  -0.0499317C 
4  -0.0207731C 
5  0.10190557C 
6  -0.3863587OA
7  -0.0073577C 
8  -0.0594552C 
9  0.00360799C 
10 0.15558586C 
11 -0.3679454OA
12 -0.3375959OA
13 0.15617196C 
14 0.11694935C 
15 -0.3853652OA
16 0.10064551C 
17 -0.3890313OA
18 0.06616358C 
19 -0.0505076C 
20 0.11862770C 
21 -0.4579908OA
22 0.33055198C 
23 -0.2469143OA
24 0.02326838C 
25 -0.0544553C 
26 -0.0533814C 
27 -0.0009334C 
28 0.02289596SA
29 -0.2830648OA
30 0.15689210C 
31 -0.3695538OA


$$$$
