
     RDKit          3D

 36 35  0  0  0  0  0  0  0  0999 V2000
    0.4962   -5.1499   -0.7216 C   0  0  0  0  0  0  0  0  0  0  0  0
   -0.4710   -5.8498   -0.0301 O   0  0  0  0  0  0  0  0  0  0  0  0
   -1.6851   -5.5796   -0.5363 C   0  0  0  0  0  3  0  0  0  0  0  0
   -2.2297   -4.3440   -0.3647 O   0  0  0  0  0  0  0  0  0  0  0  0
   -2.1192   -4.0345    1.0046 C   0  0  2  0  0  0  0  0  0  0  0  0
   -3.5313   -3.4672    1.3414 C   0  0  0  0  0  0  0  0  0  0  0  0
   -1.1536   -2.9335    1.3407 C   0  0  0  0  0  3  0  0  0  0  0  0
   -0.8473   -1.8340    0.3925 C   0  0  1  0  0  0  0  0  0  0  0  0
    0.2929   -2.2725   -0.5554 C   0  0  0  0  0  3  0  0  0  0  0  0
    0.7536   -0.9614   -1.2605 C   0  0  0  0  0  0  0  0  0  0  0  0
    1.1952   -0.1365   -0.1223 C   0  0  2  0  0  0  0  0  0  0  0  0
    1.5276    1.2817   -0.7544 C   0  0  0  0  0  0  0  0  0  0  0  0
    1.8016    2.2148    0.1938 O   0  0  0  0  0  0  0  0  0  0  0  0
    2.5929   -0.5781    0.4267 C   0  0  0  0  0  0  0  0  0  0  0  0
    3.5276   -0.2598   -0.6007 O   0  0  0  0  0  0  0  0  0  0  0  0
    4.4880    0.6057    0.1511 B   0  0  0  0  0  0  0  0  0  0  0  0
    4.6804    0.3862    1.6866 C   0  0  0  0  0  2  0  0  0  0  0  0
    5.1989    1.7714   -0.6489 C   0  0  1  0  0  0  0  0  0  0  0  0
    4.5743    3.1063   -0.6470 C   0  0  0  0  0  0  0  0  0  0  0  0
    4.5412    3.8218    0.5095 O   0  0  0  0  0  0  0  0  0  0  0  0
    5.3578    4.9297    0.4528 C   0  0  0  0  0  0  0  0  0  0  0  0
    6.6608    4.5845    0.2285 O   0  0  0  0  0  0  0  0  0  0  0  0
    6.6134    1.8319   -0.2732 N   0  0  0  0  0  0  0  0  0  0  0  0
    6.8661    0.9338    0.8669 C   0  0  0  0  0  3  0  0  0  0  0  0
    7.6289   -0.1206    0.3240 O   0  0  0  0  0  0  0  0  0  0  0  0
   -1.9939   -1.3151   -0.3729 C   0  0  0  0  0  3  0  0  0  0  0  0
   -2.2556    0.0055   -0.2907 O   0  0  0  0  0  0  0  0  0  0  0  0
   -3.0131    0.2704    0.8660 C   0  0  0  0  0  0  0  0  0  0  0  0
   -4.0835   -0.7514    0.9904 C   0  0  0  0  0  0  0  0  0  0  0  0
   -5.0361   -0.8906   -0.1179 C   0  0  0  0  0  3  0  0  0  0  0  0
   -5.5998    0.3292   -0.3700 O   0  0  0  0  0  0  0  0  0  0  0  0
   -5.7227    0.9764    0.8946 C   0  0  0  0  0  3  0  0  0  0  0  0
   -6.8843    1.9249    0.7779 C   0  0  0  0  0  3  0  0  0  0  0  0
   -6.4201    3.1531    0.2701 O   0  0  0  0  0  0  0  0  0  0  0  0
   -7.2784    4.2208    0.1746 C   0  0  0  0  0  0  0  0  0  0  0  0
   -8.4729    4.1306    0.5111 O   0  0  0  0  0  0  0  0  0  0  0  0
  1  2  1  0
  2  3  1  0
  3  4  1  0
  4  5  1  0
  5  6  1  6
  5  7  1  0
  8  7  1  6
  8  9  1  0
  9 10  1  0
 11 10  1  6
 11 12  1  0
 12 13  1  0
 11 14  1  0
 14 15  1  0
 15 16  1  0
 16 17  1  0
 16 18  1  0
 18 19  1  1
 19 20  1  0
 20 21  1  0
 21 22  1  0
 18 23  1  0
 23 24  1  0
 24 25  1  0
  8 26  1  0
 26 27  1  0
 27 28  1  0
 28 29  1  0
 29 30  1  0
 30 31  1  0
 31 32  1  0
 32 33  1  0
 33 34  1  0
 34 35  1  0
 35 36  2  0
M  RAD  8   3   2   7   2   9   2  17   3  24   2  26   2  30   2  32   2
M  RAD  1  33   2
M  END
>  <fragInfo>  (1) 
1 2
3
4
5 6
7
8
9
10
11
12 13
14
15
16 17
18
19
20
21 22
23
24 25
26
27
28
29
30
31
32
33
34
35 36


>  <torsionInfo>  (1) 
2 3 0 1
3 4 1 2
4 5 2 3
5 7 3 4
7 8 4 5
8 9 5 6
8 26 5 19
9 10 6 7
10 11 7 8
11 12 8 9
11 14 8 10
14 15 10 11
15 16 11 12
16 18 12 13
18 19 13 14
18 23 13 17
19 20 14 15
20 21 15 16
23 24 17 18
26 27 19 20
27 28 20 21
28 29 21 22
29 30 22 23
30 31 23 24
31 32 24 25
32 33 25 26
33 34 26 27
34 35 27 28


>  <atomInfo>  (1) 
1  0.03885651C 
2  -0.3513313OA
3  0.20894051C 
4  -0.3446066OA
5  0.06161363C 
6  -0.0382518C 
7  -0.0037820C 
8  -0.0036165C 
9  -0.0319734C 
10 -0.0426030C 
11 0.00397132C 
12 0.04802134C 
13 -0.3959984OA
14 0.03386908C 
15 -0.4333872OA
16 0.31456755B 
17 -0.0371684C 
18 0.03897398C 
19 0.06069800C 
20 -0.3546956OA
21 0.14308601C 
22 -0.3706449OA
23 -0.2882810NA
24 0.14396216C 
25 -0.3743864OA
26 0.08736723C 
27 -0.3750915OA
28 0.04965466C 
29 -0.0004996C 
30 0.08663094C 
31 -0.3652905OA
32 0.12860147C 
33 0.16964106C 
34 -0.4576002OA
35 0.29309011C 
36 -0.2561225OA


$$$$
