
     RDKit          3D

 83 85  0  0  0  0  0  0  0  0999 V2000
  -14.1387    2.9906   -0.9746 C   0  0  0  0  0  0  0  0  0  0  0  0
  -12.8241    2.2180   -0.9938 C   0  0  0  0  0  0  0  0  0  0  0  0
  -13.0407    0.9210   -1.7333 C   0  0  0  0  0  0  0  0  0  0  0  0
  -11.7963    3.0519   -1.7316 C   0  0  0  0  0  0  0  0  0  0  0  0
  -10.4775    2.2730   -1.7491 C   0  0  0  0  0  0  0  0  0  0  0  0
   -9.4675    3.1232   -2.4895 C   0  0  0  0  0  0  0  0  0  0  0  0
   -8.1557    2.4021   -2.5340 C   0  0  1  0  0  0  0  0  0  0  0  0
   -7.6355    2.1305   -1.1534 C   0  0  0  0  0  0  0  0  0  0  0  0
   -8.2372    1.1485   -3.3759 C   0  0  0  0  0  3  0  0  0  0  0  0
   -6.9243    0.4415   -3.4112 C   0  0  0  0  0  0  0  0  0  0  0  0
   -6.4468    0.0196   -2.0401 C   0  0  0  0  0  0  0  0  0  0  0  0
   -5.1348   -0.6870   -2.0740 C   0  0  0  0  0  3  0  0  0  0  0  0
   -4.7644   -1.0563   -0.6512 C   0  0  0  0  0  0  0  0  0  0  0  0
   -5.1723   -1.9667   -2.8783 C   0  0  0  0  0  3  0  0  0  0  0  0
   -6.3884   -2.8021   -2.5510 C   0  0  0  0  0  0  0  0  0  0  0  0
   -6.6441   -2.8875   -1.0623 C   0  0  2  0  0  0  0  0  0  0  0  0
   -6.1092   -4.1863   -0.4984 C   0  0  0  0  0  0  0  0  0  0  0  0
   -8.1127   -2.7103   -0.7354 C   0  0  0  0  0  0  0  0  0  0  0  0
   -8.2300   -1.6778    0.3460 C   0  0  0  0  0  0  0  0  0  0  0  0
   -7.2770   -1.9348    1.4930 C   0  0  2  0  0  0  0  0  0  0  0  0
   -7.4602   -3.3113    2.0902 C   0  0  0  0  0  0  0  0  0  0  0  0
   -7.2930   -0.8463    2.5119 C   0  0  0  0  0  0  0  0  0  0  0  0
   -6.0278   -0.0512    2.5947 C   0  0  0  0  0  0  0  0  0  0  0  0
   -6.2952    1.3857    2.3014 C   0  0  0  0  0  0  0  0  0  0  0  0
   -5.0798    2.2380    2.1700 C   0  0  2  0  0  0  0  0  0  0  0  0
   -4.8947    3.2766    3.2692 C   0  0  0  0  0  0  0  0  0  0  0  0
   -4.9577    2.9203    0.8727 N   0  0  0  0  0  0  0  0  0  0  0  0
   -3.5463    2.5989    0.9105 C   0  0  0  0  0  0  0  0  0  0  0  0
   -3.8209    1.4894    1.8657 C   0  0  2  0  0  0  0  0  0  0  0  0
   -4.0151    0.1196    1.3365 C   0  0  0  0  0  0  0  0  0  0  0  0
   -3.7052   -0.0888   -0.1010 C   0  0  2  0  0  0  0  0  0  0  0  0
   -3.7670    1.1381   -0.9510 C   0  0  0  0  0  0  0  0  0  0  0  0
   -2.3744   -0.7590   -0.3379 C   0  0  2  0  0  0  0  0  0  0  0  0
   -2.2300   -2.0773    0.3384 C   0  0  1  0  0  0  0  0  0  0  0  0
   -2.9699   -2.2034    1.6302 C   0  0  0  0  0  0  0  0  0  0  0  0
   -2.5472   -3.1803   -0.6414 C   0  0  0  0  0  0  0  0  0  0  0  0
   -1.3053   -3.9669   -0.9551 C   0  0  0  0  0  0  0  0  0  0  0  0
   -0.6560   -4.3865    0.3439 C   0  0  0  0  0  0  0  0  0  0  0  0
   -0.1984   -5.8160    0.2794 C   0  0  1  0  0  0  0  0  0  0  0  0
   -1.2999   -6.8098    0.4791 C   0  0  0  0  0  0  0  0  0  0  0  0
    0.5310   -6.0159   -1.0323 C   0  0  0  0  0  0  0  0  0  0  0  0
    1.8801   -5.3192   -0.8824 C   0  0  0  0  0  0  0  0  0  0  0  0
    2.4556   -5.8206    0.4423 C   0  0  0  0  0  0  0  0  0  0  0  0
    2.9588   -7.2282    0.1940 C   0  0  1  0  0  0  0  0  0  0  0  0
    1.8364   -8.2391    0.2274 C   0  0  0  0  0  0  0  0  0  0  0  0
    3.6455   -7.2066   -1.1716 C   0  0  0  0  0  3  0  0  0  0  0  0
    4.5489   -5.9750   -1.1600 C   0  0  0  0  0  0  0  0  0  0  0  0
    5.0708   -5.7407    0.2203 C   0  0  0  0  0  0  0  0  0  0  0  0
    6.2847   -5.2551    0.4474 C   0  0  0  0  0  0  0  0  0  0  0  0
    6.8400   -5.0078    1.8060 C   0  0  0  0  0  0  0  0  0  0  0  0
    7.1405   -4.9392   -0.7285 C   0  0  0  0  0  0  0  0  0  0  0  0
    8.5645   -5.3015   -0.3425 C   0  0  0  0  0  0  0  0  0  0  0  0
    9.2539   -4.1506    0.3493 C   0  0  0  0  0  0  0  0  0  0  0  0
   10.6454   -3.9957   -0.2387 C   0  0  0  0  0  0  0  0  0  0  0  0
   11.5149   -3.1913    0.6731 C   0  0  0  0  0  0  0  0  0  0  0  0
   12.6002   -2.4937   -0.1216 C   0  0  0  0  0  0  0  0  0  0  0  0
   13.0110   -1.1981    0.5777 C   0  0  0  0  0  3  0  0  0  0  0  0
   13.0226   -0.0853   -0.4676 C   0  0  0  0  0  0  0  0  0  0  0  0
   11.7134    0.6476   -0.3446 C   0  0  0  0  0  0  0  0  0  0  0  0
   11.9229    1.9705    0.3551 C   0  0  1  0  0  0  0  0  0  0  0  0
   13.3491    2.4221    0.2341 C   0  0  0  0  0  0  0  0  0  0  0  0
   11.0362    3.0138   -0.2998 C   0  0  0  0  0  0  0  0  0  0  0  0
    9.9711    3.4676    0.6764 C   0  0  0  0  0  0  0  0  0  0  0  0
    9.7207    4.9544    0.5191 C   0  0  0  0  0  0  0  0  0  0  0  0
    8.6140    5.1355   -0.4991 C   0  0  2  0  0  0  0  0  0  0  0  0
    9.0654    6.0210   -1.6351 C   0  0  0  0  0  0  0  0  0  0  0  0
    7.4002    5.7364    0.1642 C   0  0  0  0  0  0  0  0  0  0  0  0
    7.2558    7.1786   -0.2178 C   0  0  0  0  0  0  0  0  0  0  0  0
    5.8400    7.3838   -0.7543 C   0  0  0  0  0  0  0  0  0  0  0  0
    5.0056    7.9320    0.3853 C   0  0  0  0  0  0  0  0  0  0  0  0
    3.9152    6.9255    0.6979 C   0  0  0  0  0  0  0  0  0  0  0  0
    2.6785    7.3193   -0.0996 C   0  0  0  0  0  0  0  0  0  0  0  0
    1.9239    6.0605   -0.4466 C   0  0  0  0  0  0  0  0  0  0  0  0
    1.4678    5.4036    0.8500 C   0  0  1  0  0  0  0  0  0  0  0  0
    0.8996    6.4831    1.7456 C   0  0  0  0  0  0  0  0  0  0  0  0
    0.4331    4.3695    0.4915 C   0  0  0  0  0  3  0  0  0  0  0  0
   -0.4663    4.1633    1.6883 C   0  0  0  0  0  0  0  0  0  0  0  0
   -0.2482    2.7520    2.2219 C   0  0  0  0  0  0  0  0  0  0  0  0
   -0.0189    1.8361    1.0654 C   0  0  1  0  0  0  0  0  0  0  0  0
    1.4287    1.5449    0.7934 C   0  0  0  0  0  0  0  0  0  0  0  0
   -0.8471    0.5489    1.1719 C   0  0  0  0  0  3  0  0  0  0  0  0
   -1.2018    0.1454   -0.2231 C   0  0  2  0  0  0  0  0  0  0  0  0
   -1.2425    1.2675   -1.2052 C   0  0  0  0  0  0  0  0  0  0  0  0
  1  2  1  0
  2  3  1  0
  2  4  1  0
  4  5  1  0
  5  6  1  0
  6  7  1  0
  7  8  1  1
  7  9  1  0
  9 10  1  0
 10 11  1  0
 11 12  1  0
 12 13  1  0
 12 14  1  0
 14 15  1  0
 15 16  1  0
 16 17  1  6
 16 18  1  0
 18 19  1  0
 19 20  1  0
 20 21  1  1
 20 22  1  0
 22 23  1  0
 23 24  1  0
 24 25  1  0
 25 26  1  1
 25 27  1  0
 27 28  1  0
 29 28  1  6
 29 30  1  0
 30 31  1  0
 31 32  1  6
 33 31  1  1
 33 34  1  0
 34 35  1  1
 34 36  1  0
 36 37  1  0
 37 38  1  0
 38 39  1  0
 39 40  1  6
 39 41  1  0
 41 42  1  0
 42 43  1  0
 43 44  1  0
 44 45  1  6
 44 46  1  0
 46 47  1  0
 47 48  1  0
 48 49  2  3
 49 50  1  0
 49 51  1  0
 51 52  1  0
 52 53  1  0
 53 54  1  0
 54 55  1  0
 55 56  1  0
 56 57  1  0
 57 58  1  0
 58 59  1  0
 59 60  1  0
 60 61  1  6
 60 62  1  0
 62 63  1  0
 63 64  1  0
 64 65  1  0
 65 66  1  6
 65 67  1  0
 67 68  1  0
 68 69  1  0
 69 70  1  0
 70 71  1  0
 71 72  1  0
 72 73  1  0
 73 74  1  0
 74 75  1  1
 74 76  1  0
 76 77  1  0
 77 78  1  0
 78 79  1  0
 79 80  1  1
 79 81  1  0
 81 82  1  0
 82 83  1  6
 31 13  1  0
 29 25  1  0
 82 33  1  0
M  RAD  7   9   2  12   2  14   2  46   2  57   2  76   2  81   2
M  END
>  <fragInfo>  (1) 
33 34 35 36 37 38 39 40 41 42 43 44 45 46 47 48 49 50 51 52 53 54 55 56 57 58 59 60 61 62 63 64 65 66 67 68 69 70 71 72 73 74 75 76 77 78 79 80 81 82 83
1 2 3
4
5
6
7 8
9
10
11
12 13 14 15 16 17 18 19 20 21 22 23 24 25 26 27 28 29 30 31 32


>  <torsionInfo>  (1) 
31 33 9 0
2 4 1 2
4 5 2 3
5 6 3 4
6 7 4 5
7 9 5 6
9 10 6 7
10 11 7 8
11 12 8 9


>  <atomInfo>  (1) 
1  -0.0627736C 
2  -0.0471324C 
3  -0.0627736C 
4  -0.0509643C 
5  -0.0527983C 
6  -0.0504266C 
7  -0.0411602C 
8  -0.0622342C 
9  -0.0357293C 
10 -0.0493580C 
11 -0.0464729C 
12 -0.0201373C 
13 -0.0410394C 
14 -0.0315299C 
15 -0.0470159C 
16 -0.0439752C 
17 -0.0624988C 
18 -0.0504468C 
19 -0.0504573C 
20 -0.0442689C 
21 -0.0625095C 
22 -0.0506428C 
23 -0.0512963C 
24 -0.0348092C 
25 0.01934582C 
26 -0.0465315C 
27 -0.3108459NA
28 0.00024163C 
29 -0.0102645C 
30 -0.0417295C 
31 -0.0282967C 
32 -0.0593251C 
33 -0.0305375C 
34 -0.0406497C 
35 -0.0622140C 
36 -0.0504062C 
37 -0.0527878C 
38 -0.0507010C 
39 -0.0442797C 
40 -0.0625097C 
41 -0.0507010C 
42 -0.0527880C 
43 -0.0504151C 
44 -0.0408535C 
45 -0.0622230C 
46 -0.0319815C 
47 -0.0314232C 
48 -0.0853138C 
49 -0.0773039C 
50 -0.0439350C 
51 -0.0323083C 
52 -0.0495686C 
53 -0.0530010C 
54 -0.0532845C 
55 -0.0530317C 
56 -0.0501828C 
57 -0.0385744C 
58 -0.0499294C 
59 -0.0504372C 
60 -0.0442695C 
61 -0.0625095C 
62 -0.0507010C 
63 -0.0527985C 
64 -0.0507012C 
65 -0.0442799C 
66 -0.0625097C 
67 -0.0507111C 
68 -0.0530522C 
69 -0.0532960C 
70 -0.0533056C 
71 -0.0532958C 
72 -0.0530419C 
73 -0.0504363C 
74 -0.0411605C 
75 -0.0622342C 
76 -0.0357403C 
77 -0.0496541C 
78 -0.0501418C 
79 -0.0408748C 
80 -0.0622236C 
81 -0.0326121C 
82 -0.0372777C 
83 -0.0619282C 


$$$$
