
     RDKit          3D

 17 18  0  0  0  0  0  0  0  0999 V2000
   -2.3582    2.5617    0.0804 C   0  0  0  0  0  0  0  0  0  0  0  0
   -2.6810    1.0944    0.2814 C   0  0  0  0  0  3  0  0  0  0  0  0
   -1.4186    0.4271    0.7711 C   0  0  1  0  0  0  0  0  0  0  0  0
   -1.6378   -1.0647    1.0062 C   0  0  2  0  0  0  0  0  0  0  0  0
   -1.5626   -1.2381    2.4050 O   0  0  0  0  0  0  0  0  0  0  0  0
   -0.4206   -1.7672    0.4373 C   0  0  2  0  0  0  0  0  0  0  0  0
    0.6916   -1.2807    1.0824 O   0  0  0  0  0  0  0  0  0  0  0  0
   -0.4063   -1.5088   -1.0482 C   0  0  1  0  0  0  0  0  0  0  0  0
   -1.5751   -2.0848   -1.5791 O   0  0  0  0  0  0  0  0  0  0  0  0
   -0.3783   -0.1472   -1.3313 O   0  0  0  0  0  0  0  0  0  0  0  0
   -0.2649    0.5673   -0.1642 C   0  0  1  0  0  0  0  0  0  0  0  0
    0.1865    1.9869   -0.3526 C   0  0  0  0  0  3  0  0  0  0  0  0
    1.6520    2.0503    0.0475 C   0  0  0  0  0  0  0  0  0  0  0  0
    2.3092    0.7881   -0.4919 C   0  0  1  0  0  0  0  0  0  0  0  0
    3.5254    1.1710   -1.0526 O   0  0  0  0  0  0  0  0  0  0  0  0
    2.5468   -0.2111    0.6296 C   0  0  0  0  0  3  0  0  0  0  0  0
    1.7918   -1.3441    0.3767 O   0  0  0  0  0  0  0  0  0  0  0  0
  1  2  1  0
  3  2  1  6
  3  4  1  0
  4  5  1  1
  4  6  1  0
  6  7  1  1
  6  8  1  0
  8  9  1  6
  8 10  1  0
 10 11  1  0
 11 12  1  6
 12 13  1  0
 13 14  1  0
 14 15  1  1
 14 16  1  0
 16 17  1  0
 11  3  1  0
 17  7  1  0
M  RAD  3   2   2  12   2  16   2
M  END
>  <fragInfo>  (1) 
3 4 5 6 7 8 9 10 11 12 13 14 15 16 17
1 2


>  <torsionInfo>  (1) 
2 3 1 0


>  <atomInfo>  (1) 
1  -0.0617809C 
2  -0.0333192C 
3  0.01723559C 
4  0.09395560C 
5  -0.3896750OA
6  0.16943027C 
7  -0.2246954OA
8  0.18679223C 
9  -0.3656352OA
10 -0.3459384OA
11 0.06969170C 
12 -0.0065010C 
13 -0.0185013C 
14 0.08653597C 
15 -0.3901699OA
16 0.15047455C 
17 -0.2270359OA


$$$$
