
     RDKit          3D

 49 53  0  0  0  0  0  0  0  0999 V2000
   -4.3628    4.6526    3.8366 C   0  0  0  0  0  0  0  0  0  0  0  0
   -3.0562    4.2061    3.6155 O   0  0  0  0  0  0  0  0  0  0  0  0
   -2.6983    3.1359    2.8450 C   0  0  0  0  0  0  0  0  0  0  0  0
   -1.6903    2.3353    3.0781 C   0  0  0  0  0  0  0  0  0  0  0  0
   -1.3308    1.2110    2.2507 C   0  0  0  0  0  0  0  0  0  0  0  0
   -2.0828    0.9176    1.1099 C   0  0  0  0  0  0  0  0  0  0  0  0
   -3.1809    1.7377    0.7989 N   0  0  0  0  0  0  0  0  0  0  0  0
   -4.0369    1.5787   -0.3194 C   0  0  0  0  0  0  0  0  0  0  0  0
   -3.8576    0.5781   -1.2381 C   0  0  0  0  0  0  0  0  0  0  0  0
   -4.7106    0.4618   -2.3100 C   0  0  0  0  0  0  0  0  0  0  0  0
   -5.7658    1.3457   -2.4890 C   0  0  0  0  0  0  0  0  0  0  0  0
   -6.9546    1.1913   -3.9743 Br  0  0  0  0  0  0  0  0  0  0  0  0
   -5.9480    2.3582   -1.5603 C   0  0  0  0  0  0  0  0  0  0  0  0
   -5.0878    2.4650   -0.4911 C   0  0  0  0  0  0  0  0  0  0  0  0
   -5.2743    3.4642    0.4180 F   0  0  0  0  0  0  0  0  0  0  0  0
   -1.7362   -0.1352    0.3460 N   0  0  0  0  0  0  0  0  0  0  0  0
   -0.6865   -0.9290    0.6316 C   0  0  0  0  0  0  0  0  0  0  0  0
    0.0228   -0.6274    1.7341 N   0  0  0  0  0  0  0  0  0  0  0  0
   -0.2698    0.3901    2.5191 C   0  0  0  0  0  0  0  0  0  0  0  0
    0.5563    0.6472    3.7041 C   0  0  0  0  0  0  0  0  0  0  0  0
    1.5267   -0.1530    4.0814 C   0  0  0  0  0  0  0  0  0  0  0  0
    1.9153   -1.3081    3.4639 O   0  0  0  0  0  0  0  0  0  0  0  0
    2.6659   -1.3971    2.2923 C   0  0  0  0  0  0  0  0  0  0  0  0
    3.7588   -2.4400    2.3715 C   0  0  0  0  0  0  0  0  0  0  0  0
    4.7871   -2.2516    1.2788 C   0  0  0  0  0  0  0  0  0  0  0  0
    4.2980   -1.1337    0.3917 C   0  0  0  0  0  0  0  0  0  0  0  0
    3.2995   -1.5545   -0.5556 N   0  0  0  0  0  0  0  0  0  0  0  0
    1.9284   -1.2535   -0.6571 C   0  0  0  0  0  0  0  0  0  0  0  0
    1.2819   -0.1590   -0.7247 C   0  0  0  0  0  0  0  0  0  0  0  0
    1.4640    1.1851   -0.7406 N   0  0  0  0  0  0  0  0  0  0  0  0
    2.6055    1.9438    0.3823 S   0  0  0  0  0  0  0  0  0  0  0  0
    4.1434    2.0961   -0.4731 N   0  0  0  0  0  0  0  0  0  0  0  0
    4.8400    3.1435   -0.2708 C   0  0  0  0  0  0  0  0  0  0  0  0
    6.1157    3.4347   -0.8810 C   0  0  0  0  0  0  0  0  0  0  0  0
    6.6114    2.5327   -1.7299 C   0  0  0  0  0  0  0  0  0  0  0  0
    4.0530   -2.4792   -1.4374 C   0  0  2  0  0  0  0  0  0  0  0  0
    4.6933   -2.3083   -2.5723 N   0  0  0  0  0  0  0  0  0  0  0  0
    3.3570   -2.8772   -2.5586 C   0  0  0  0  0  0  0  0  0  0  0  0
    2.1147   -3.4154   -2.6503 O   0  0  0  0  0  0  0  0  0  0  0  0
    0.8699   -2.8590   -2.1486 C   0  0  1  0  0  0  0  0  0  0  0  0
    0.9420   -2.4426   -0.7236 C   0  0  1  0  0  0  0  0  0  0  0  0
    1.4067   -3.5219    0.1155 N   0  0  0  0  0  0  0  0  0  0  0  0
   -0.4031   -2.0320   -0.2546 C   0  0  0  0  0  0  0  0  0  0  0  0
   -1.4055   -2.7736   -0.7141 C   0  0  0  0  0  0  0  0  0  0  0  0
   -2.8391   -2.5282   -0.3602 C   0  0  0  0  0  0  0  0  0  0  0  0
   -1.2020   -3.8902   -1.6019 N   0  0  0  0  0  0  0  0  0  0  0  0
    0.5880   -1.7208   -3.0001 N   0  0  0  0  0  0  0  0  0  0  0  0
   -0.5499   -0.9254   -2.8151 N   0  0  0  0  0  0  0  0  0  0  0  0
   -0.7154    0.1039   -3.5468 C   0  0  0  0  0  0  0  0  0  0  0  0
  1  2  1  0
  2  3  1  0
  3  4  2  3
  4  5  1  0
  5  6  2  0
  6  7  1  0
  7  8  1  0
  8  9  2  0
  9 10  1  0
 10 11  2  0
 11 12  1  0
 11 13  1  0
 13 14  2  0
 14 15  1  0
  6 16  1  0
 16 17  2  0
 17 18  1  0
 18 19  2  0
 19 20  1  0
 20 21  2  3
 21 22  1  0
 22 23  1  0
 23 24  1  0
 24 25  1  0
 25 26  1  0
 26 27  1  0
 27 28  1  0
 28 29  2  3
 29 30  1  0
 30 31  1  0
 31 32  1  0
 32 33  2  3
 33 34  1  0
 34 35  2  0
 36 27  1  6
 36 37  1  0
 37 38  2  0
 38 39  1  0
 39 40  1  0
 40 41  1  0
 41 42  1  1
 41 43  1  0
 43 44  2  3
 44 45  1  0
 44 46  1  0
 40 47  1  6
 47 48  1  0
 48 49  2  0
 19  5  1  0
 14  8  1  0
 43 17  1  0
 41 28  1  0
 38 36  1  0
M  END
>  <fragInfo>  (1) 
5 6 16 17 18 19 20 21 22 23 24 25 26 27 28 29 36 37 38 39 40 41 42 43 44 45 46
1 2
3 4
7
8 9 10 11 12 13 14 15
30
31
32 33
34 35
47
48 49


>  <torsionInfo>  (1) 
4 5 2 0
6 7 0 3
29 30 0 5
40 47 0 9
2 3 1 2
7 8 3 4
30 31 5 6
31 32 6 7
33 34 7 8
47 48 9 10


>  <atomInfo>  (1) 
1  0.07660114C 
2  -0.5043416OA
3  0.08322390C 
4  -0.0143768C 
5  0.04621513A 
6  0.14209589A 
7  -0.3372024N 
8  0.07596401A 
9  -0.0344281A 
10 -0.0456991A 
11 0.02054128A 
12 -0.0507274Br
13 -0.0098810A 
14 0.14729493A 
15 -0.2046615F 
16 -0.2104414NA
17 0.16186796A 
18 -0.2279047NA
19 0.07962366A 
20 -0.0008994C 
21 0.08501766C 
22 -0.5011181OA
23 0.08735322C 
24 -0.0170994C 
25 -0.0322217C 
26 0.02030561C 
27 -0.3421309N 
28 0.06331559C 
29 0.03074873C 
30 -0.3156062N 
31 0.08958917SA
32 -0.2033228NA
33 0.03647848C 
34 -0.0503367C 
35 -0.0975106C 
36 0.20107757C 
37 -0.2165897NA
38 0.23452176C 
39 -0.4497574OA
40 0.21369076C 
41 0.14641368C 
42 -0.3114944NA
43 0.04699166C 
44 0.01447370C 
45 -0.0244901C 
46 -0.4018629N 
47 -0.2700182NA
48 -0.1933049NA
49 0.01059651C 


$$$$
