
     RDKit          3D

 24 24  0  0  0  0  0  0  0  0999 V2000
   -5.9078    1.9978    0.5586 C   0  0  0  0  0  0  0  0  0  0  0  0
   -4.4710    2.2073    0.4949 C   0  0  0  0  0  3  0  0  0  0  0  0
   -3.6785    1.4057   -0.5054 C   0  0  0  0  0  0  0  0  0  0  0  0
   -3.8061   -0.0086   -0.5442 C   0  0  2  0  0  0  0  0  0  0  0  0
   -4.8621   -0.8172   -0.7559 O   0  0  0  0  0  0  0  0  0  0  0  0
   -3.3863   -0.4981    1.0012 C   0  0  2  0  0  0  0  0  0  0  0  0
   -2.6675    0.5518    1.5779 O   0  0  0  0  0  0  0  0  0  0  0  0
   -2.1292   -1.4182    0.5801 C   0  0  1  0  0  0  0  0  0  0  0  0
   -2.4513   -2.4876   -0.1366 O   0  0  0  0  0  0  0  0  0  0  0  0
   -1.2445   -0.4612    0.1613 O   0  0  0  0  0  0  0  0  0  0  0  0
   -0.0474   -1.0426   -0.2322 C   0  0  0  0  0  3  0  0  0  0  0  0
    0.8766    0.2081   -0.6147 C   0  0  1  0  0  0  0  0  0  0  0  0
    0.4675    0.7687   -1.9099 C   0  0  0  0  0  0  0  0  0  0  0  0
    1.0931    1.0131    0.4078 O   0  0  0  0  0  0  0  0  0  0  0  0
    1.9652    0.6580    1.3970 C   0  0  0  0  0  0  0  0  0  0  0  0
    3.2277    1.2476    1.2447 O   0  0  0  0  0  0  0  0  0  0  0  0
    4.1460    0.3343    1.0152 O   0  0  0  0  0  0  0  0  0  0  0  0
    4.4518    0.3188   -0.3393 C   0  0  1  0  0  0  0  0  0  0  0  0
    4.9682   -0.9584   -0.7102 O   0  0  0  0  0  0  0  0  0  0  0  0
    3.1939    0.4805   -1.0852 C   0  0  1  0  0  0  0  0  0  0  0  0
    3.3192    0.8961   -2.3792 O   0  0  0  0  0  0  0  0  0  0  0  0
    2.2264   -0.6661   -0.9027 C   0  0  1  0  0  0  0  0  0  0  0  0
    2.3073   -1.1658    0.4698 O   0  0  0  0  0  0  0  0  0  0  0  0
    2.4089   -2.5638    0.3763 N   0  0  0  0  0  0  0  0  0  0  0  0
  1  2  1  0
  2  3  1  0
  3  4  1  0
  4  5  1  1
  4  6  1  0
  6  7  1  1
  6  8  1  0
  8  9  1  6
  8 10  1  0
 10 11  1  0
 11 12  1  0
 12 13  1  6
 12 14  1  0
 14 15  1  0
 15 16  1  0
 16 17  1  0
 17 18  1  0
 18 19  1  6
 18 20  1  0
 20 21  1  6
 20 22  1  0
 22 23  1  1
 23 24  1  0
 22 12  1  0
M  RAD  2   2   2  11   2
M  END
>  <fragInfo>  (1) 
12 13 14 15 16 17 18 19 20 21 22
1 2
3
4 5
6 7
8 9
10
11
23 24


>  <torsionInfo>  (1) 
11 12 7 0
22 23 0 8
2 3 1 2
3 4 2 3
4 6 3 4
6 8 4 5
8 10 5 6
10 11 6 7


>  <atomInfo>  (1) 
1  -0.0621560C 
2  -0.0390424C 
3  -0.0214027C 
4  0.08514762C 
5  -0.3902137OA
6  0.13040417C 
7  -0.3851046OA
8  0.18349530C 
9  -0.3657322OA
10 -0.3408369OA
11 0.12145492C 
12 0.12799666C 
13 -0.0302010C 
14 -0.3403183OA
15 0.18138427C 
16 -0.2051428OA
17 -0.1993203OA
18 0.21740159C 
19 -0.3635672OA
20 0.13863712C 
21 -0.3847625OA
22 0.14093533C 
23 -0.2952062OA
24 -0.2152666NA


$$$$
