
     RDKit          3D

 25 27  0  0  0  0  0  0  0  0999 V2000
    3.3506    3.4115    0.6657 C   0  0  0  0  0  0  0  0  0  0  0  0
    3.8167    2.0437    0.2864 C   0  0  0  0  0  0  0  0  0  0  0  0
    4.6762    2.0285   -0.9600 C   0  0  0  0  0  0  0  0  0  0  0  0
    2.6244    1.1224    0.1588 C   0  0  0  0  0  3  0  0  0  0  0  0
    3.0435   -0.2813   -0.2252 C   0  0  0  0  0  0  0  0  0  0  0  0
    1.7746   -1.1061   -0.3222 C   0  0  1  0  0  0  0  0  0  0  0  0
    1.1802   -1.0426    0.9864 O   0  0  0  0  0  0  0  0  0  0  0  0
   -0.0991   -1.5592    1.1876 C   0  0  0  0  0  0  0  0  0  0  0  0
   -0.9031   -1.1294    2.0487 O   0  0  0  0  0  0  0  0  0  0  0  0
   -0.5103   -2.6759    0.3269 C   0  0  2  0  0  0  0  0  0  0  0  0
    0.6093   -3.2740   -0.4470 C   0  0  0  0  0  0  0  0  0  0  0  0
    1.8506   -3.9009    0.6829 Cl  0  0  0  0  0  0  0  0  0  0  0  0
   -1.7680   -2.4926   -0.3661 C   0  0  0  0  0  0  0  0  0  0  0  0
   -2.2699   -1.4476   -0.9566 C   0  0  0  0  0  0  0  0  0  0  0  0
   -3.5617   -1.3462   -1.6407 C   0  0  0  0  0  0  0  0  0  0  0  0
   -3.6525   -0.1236   -2.0816 C   0  0  0  0  0  0  0  0  0  0  0  0
   -2.4931    0.6564   -1.7490 C   0  0  0  0  0  0  0  0  0  0  0  0
   -1.6519   -0.1379   -1.0681 C   0  0  0  0  0  0  0  0  0  0  0  0
    0.8345   -0.3415   -1.2243 C   0  0  0  0  0  0  0  0  0  0  0  0
   -0.3400    0.2275   -0.5211 C   0  0  1  0  0  0  0  0  0  0  0  0
   -0.1453    1.7190   -0.4042 C   0  0  0  0  0  3  0  0  0  0  0  0
   -1.1011    2.3554    0.4448 N   0  0  0  0  0  0  0  0  0  0  0  0
   -2.1571    1.6329    0.8977 O   0  0  0  0  0  0  0  0  0  0  0  0
   -1.2107    2.2920    1.7809 C   0  0  2  0  0  0  0  0  0  0  0  0
   -1.8967    3.3694    2.4991 N   0  0  0  0  0  0  0  0  0  0  0  0
  1  2  1  0
  2  3  1  0
  2  4  1  0
  4  5  1  0
  6  5  1  1
  6  7  1  0
  7  8  1  0
  8  9  2  0
  8 10  1  0
 10 11  1  6
 11 12  1  0
 10 13  1  0
 13 14  2  3
 14 15  1  0
 15 16  2  0
 16 17  1  0
 17 18  2  0
  6 19  1  0
 19 20  1  0
 20 21  1  6
 21 22  1  0
 22 23  1  0
 23 24  1  0
 24 25  1  6
 18 14  1  0
 20 18  1  0
 24 22  1  0
M  RAD  2   4   2  21   2
M  END
>  <fragInfo>  (1) 
6 7 8 9 10 13 14 15 16 17 18 19 20
1 2 3
4
5
11 12
21
22 23 24 25


>  <torsionInfo>  (1) 
5 6 3 0
10 11 0 4
20 21 0 5
2 4 1 2
4 5 2 3
21 22 5 6


>  <atomInfo>  (1) 
1  -0.0624960C 
2  -0.0438729C 
3  -0.0624960C 
4  -0.0323692C 
5  -0.0123711C 
6  0.10274024C 
7  -0.4618628OA
8  0.31381466C 
9  -0.2515225OA
10 0.08927307C 
11 0.03920482C 
12 -0.1254446Cl
13 -0.0616550C 
14 -0.0252028C 
15 -0.0549796C 
16 -0.0613666C 
17 -0.0580891C 
18 -0.0360914C 
19 -0.0071606C 
20 0.00768950C 
21 0.06539776C 
22 -0.1364068NA
23 -0.2574779OA
24 0.20518591C 
25 -0.2900050NA


$$$$
