
     RDKit          2D

 63 63  0  0  0  0  0  0  0  0999 V2000
    6.9271    7.7942    0.0000 C   0  0  0  0  0  0  0  0  0  0  0  0
    6.1771    6.4952    0.0000 O   0  0  0  0  0  0  0  0  0  0  0  0
    6.9271    5.1962    0.0000 C   0  0  0  0  0  3  0  0  0  0  0  0
    6.1771    3.8971    0.0000 O   0  0  0  0  0  0  0  0  0  0  0  0
    6.9271    2.5981    0.0000 C   0  0  0  0  0  0  0  0  0  0  0  0
    8.4271    2.5981    0.0000 C   0  0  0  0  0  0  0  0  0  0  0  0
    6.1771    1.2990    0.0000 C   0  0  0  0  0  3  0  0  0  0  0  0
    4.6771    1.2990    0.0000 C   0  0  0  0  0  0  0  0  0  0  0  0
    3.9271    2.5981    0.0000 N   0  0  0  0  0  0  0  0  0  0  0  0
    4.6771    3.8971    0.0000 C   0  0  0  0  0  2  0  0  0  0  0  0
    3.9271    0.0000    0.0000 C   0  0  0  0  0  0  0  0  0  0  0  0
    2.4271    0.0000    0.0000 C   0  0  0  0  0  0  0  0  0  0  0  0
    1.9635   -1.4266    0.0000 C   0  0  0  0  0  0  0  0  0  0  0  0
    3.1771   -2.3083    0.0000 O   0  0  0  0  0  0  0  0  0  0  0  0
    3.0203   -3.8000    0.0000 C   0  0  0  0  0  0  0  0  0  0  0  0
    1.9635    1.4266    0.0000 C   0  0  0  0  0  0  0  0  0  0  0  0
    0.7500    2.3083    0.0000 O   0  0  0  0  0  0  0  0  0  0  0  0
   -0.7500    2.3083    0.0000 C   0  0  0  0  0  0  0  0  0  0  0  0
   -1.9635    1.4266    0.0000 O   0  0  0  0  0  0  0  0  0  0  0  0
   -2.4271    0.0000    0.0000 C   0  0  0  0  0  0  0  0  0  0  0  0
   -1.9635   -1.4266    0.0000 C   0  0  0  0  0  0  0  0  0  0  0  0
   -0.7500   -2.3083    0.0000 O   0  0  0  0  0  0  0  0  0  0  0  0
    0.7500   -2.3083    0.0000 C   0  0  0  0  0  3  0  0  0  0  0  0
   -3.9271    0.0000    0.0000 C   0  0  0  0  0  3  0  0  0  0  0  0
   -4.6771    1.2990    0.0000 C   0  0  0  0  0  0  0  0  0  0  0  0
   -3.9271    2.5981    0.0000 N   0  0  0  0  0  0  0  0  0  0  0  0
   -4.6771    3.8971    0.0000 C   0  0  0  0  0  3  0  0  0  0  0  0
   -3.9271    5.1962    0.0000 O   0  0  0  0  0  0  0  0  0  0  0  0
   -4.6771    6.4952    0.0000 O   0  0  0  0  0  0  0  0  0  0  0  0
   -3.9271    7.7942    0.0000 C   0  0  0  0  0  0  0  0  0  0  0  0
   -4.6771    9.0933    0.0000 C   0  0  0  0  0  3  0  0  0  0  0  0
   -3.9271   10.3923    0.0000 C   0  0  0  0  0  2  0  0  0  0  0  0
   -6.1771    1.2990    0.0000 C   0  0  0  0  0  0  0  0  0  0  0  0
   -6.9271    2.5981    0.0000 O   0  0  0  0  0  0  0  0  0  0  0  0
   -8.4271    2.5981    0.0000 O   0  0  0  0  0  0  0  0  0  0  0  0
   -9.1771    3.8971    0.0000 C   0  0  0  0  0  0  0  0  0  0  0  0
   -8.4271    5.1962    0.0000 O   0  0  0  0  0  0  0  0  0  0  0  0
   -9.1771    6.4952    0.0000 C   0  0  0  0  0  3  0  0  0  0  0  0
   -8.4271    7.7942    0.0000 O   0  0  0  0  0  0  0  0  0  0  0  0
  -10.6771    3.8971    0.0000 C   0  0  0  0  0  0  0  0  0  0  0  0
  -11.4271    5.1962    0.0000 C   0  0  0  0  0  0  0  0  0  0  0  0
  -12.9271    5.1962    0.0000 C   0  0  0  0  0  0  0  0  0  0  0  0
  -13.6771    6.4952    0.0000 C   0  0  0  0  0  3  0  0  0  0  0  0
  -15.1771    6.4952    0.0000 O   0  0  0  0  0  0  0  0  0  0  0  0
  -15.9271    7.7942    0.0000 C   0  0  0  0  0  3  0  0  0  0  0  0
  -17.4271    7.7942    0.0000 C   0  0  0  0  0  0  0  0  0  0  0  0
  -18.1771    6.4952    0.0000 C   0  0  0  0  0  0  0  0  0  0  0  0
  -18.1771    9.0933    0.0000 C   0  0  0  0  0  2  0  0  0  0  0  0
  -11.4271    2.5981    0.0000 C   0  0  0  0  0  0  0  0  0  0  0  0
  -12.9271    2.5981    0.0000 C   0  0  0  0  0  0  0  0  0  0  0  0
  -13.6771    1.2990    0.0000 C   0  0  0  0  0  3  0  0  0  0  0  0
  -15.1771    1.2990    0.0000 O   0  0  0  0  0  0  0  0  0  0  0  0
  -15.9271   -0.0000    0.0000 O   0  0  0  0  0  0  0  0  0  0  0  0
  -10.6771    1.2990    0.0000 C   0  0  0  0  0  0  0  0  0  0  0  0
   -9.1771    1.2990    0.0000 C   0  0  0  0  0  2  0  0  0  0  0  0
  -11.4271   -0.0000    0.0000 C   0  0  0  0  0  0  0  0  0  0  0  0
  -10.6771   -1.2990    0.0000 C   0  0  0  0  0  0  0  0  0  0  0  0
  -11.4271   -2.5981    0.0000 O   0  0  0  0  0  0  0  0  0  0  0  0
  -10.6771   -3.8971    0.0000 C   0  0  0  0  0  3  0  0  0  0  0  0
  -11.4271   -5.1962    0.0000 C   0  0  0  0  0  2  0  0  0  0  0  0
  -12.9271    0.0000    0.0000 O   0  0  0  0  0  0  0  0  0  0  0  0
  -13.6771   -1.2990    0.0000 C   0  0  0  0  0  3  0  0  0  0  0  0
  -15.1771   -1.2990    0.0000 C   0  0  0  0  0  2  0  0  0  0  0  0
  1  2  1  0
  2  3  1  0
  3  4  1  0
  4  5  1  0
  5  6  1  6
  5  7  1  0
  8  7  1  6
  8  9  1  0
  9 10  1  0
  8 11  1  0
 11 12  1  0
 12 13  1  0
 13 14  1  0
 14 15  1  0
 12 16  1  0
 16 17  1  0
 17 18  1  0
 18 19  1  0
 19 20  1  0
 20 21  1  0
 21 22  1  0
 22 23  1  0
 20 24  1  6
 25 24  1  1
 25 26  1  0
 26 27  1  0
 27 28  1  0
 28 29  1  0
 29 30  1  0
 30 31  1  0
 31 32  1  0
 25 33  1  0
 33 34  1  0
 34 35  1  0
 36 35  1  6
 36 37  1  0
 37 38  1  0
 38 39  1  0
 36 40  1  0
 40 41  1  6
 41 42  1  0
 42 43  1  0
 43 44  1  0
 44 45  1  0
 45 46  1  0
 46 47  1  6
 46 48  1  0
 40 49  1  0
 49 50  1  6
 50 51  1  0
 51 52  1  0
 52 53  1  0
 49 54  1  0
 54 55  1  6
 54 56  1  0
 56 57  1  1
 57 58  1  0
 58 59  1  0
 59 60  1  0
 56 61  1  0
 61 62  1  0
 62 63  1  0
 23 13  1  0
M  RAD  8   3   2   7   2  10   3  23   2  24   2  27   2  31   2  32   3
M  RAD  8  38   2  43   2  45   2  48   3  51   2  55   3  59   2  60   3
M  RAD  2  62   2  63   3
M  END
>  <fragInfo>  (1) 
12 13 16 17 18 19 20 21 22 23
1 2
3
4
5 6
7
8
9 10
11
14 15
24
25
26
27
28
29
30
31 32
33
34
35
36
37
38 39
40
41
42
43
44
45
46 47 48
49
50
51
52 53
54 55
56
57
58
59 60
61
62 63


>  <torsionInfo>  (1) 
11 12 8 0
13 14 0 9
20 24 0 10
2 3 1 2
3 4 2 3
4 5 3 4
5 7 4 5
7 8 5 6
8 9 6 7
8 11 6 8
24 25 10 11
25 26 11 12
25 33 11 18
26 27 12 13
27 28 13 14
28 29 14 15
29 30 15 16
30 31 16 17
33 34 18 19
34 35 19 20
35 36 20 21
36 37 21 22
36 40 21 24
37 38 22 23
40 41 24 25
40 49 24 31
41 42 25 26
42 43 26 27
43 44 27 28
44 45 28 29
45 46 29 30
49 50 31 32
49 54 31 35
50 51 32 33
51 52 33 34
54 56 35 36
56 57 36 37
56 61 36 40
57 58 37 38
58 59 38 39
61 62 40 41


>  <atomInfo>  (1) 
1  0.03885651C 
2  -0.3513313OA
3  0.20894130C 
4  -0.3445559OA
5  0.06277452C 
6  -0.0382025C 
7  0.00708483C 
8  0.01325363C 
9  -0.3076823NA
10 0.04094794C 
11 -0.0297241C 
12 0.01278025C 
13 0.09097631C 
14 -0.3782652OA
15 0.03598873C 
16 0.05489780C 
17 -0.3550198OA
18 0.14673175C 
19 -0.3494372OA
20 0.08849512C 
21 0.07394014C 
22 -0.3699686OA
23 0.11274549C 
24 0.01224197C 
25 0.04177216C 
26 -0.2803560NA
27 0.18664842C 
28 -0.2130877OA
29 -0.2346370OA
30 0.08573505C 
31 -0.0058180C 
32 -0.0289183C 
33 0.09809454C 
34 -0.2323616OA
35 -0.2040114OA
36 0.19700193C 
37 -0.3152130OA
38 0.20904399C 
39 -0.3638742OA
40 0.01649754C 
41 -0.0426342C 
42 -0.0236823C 
43 0.08417599C 
44 -0.3692893OA
45 0.08724446C 
46 -0.0118245C 
47 -0.0596398C 
48 -0.0293151C 
49 -0.0252495C 
50 -0.0171523C 
51 0.12221453C 
52 -0.2332114OA
53 -0.2514394OA
54 -0.0058941C 
55 -0.0287374C 
56 0.08471241C 
57 0.07366788C 
58 -0.3724873OA
59 0.08760522C 
60 -0.0008444C 
61 -0.3692520OA
62 0.08799769C 
63 -0.0008284C 


$$$$
