
     RDKit          3D

 67 67  0  0  0  0  0  0  0  0999 V2000
  -15.7632    0.7182   -1.5356 C   0  0  0  0  0  0  0  0  0  0  0  0
  -17.1962    1.0139   -1.1917 C   0  0  0  0  0  3  0  0  0  0  0  0
  -17.2342    1.8301    0.0642 C   0  0  0  0  0  0  0  0  0  0  0  0
  -16.7923    1.0363    1.2702 C   0  0  2  0  0  0  0  0  0  0  0  0
  -17.8434    0.5165    1.9905 O   0  0  0  0  0  0  0  0  0  0  0  0
  -15.8850    1.9051    2.1414 C   0  0  2  0  0  0  0  0  0  0  0  0
  -16.1160    3.2501    1.9181 O   0  0  0  0  0  0  0  0  0  0  0  0
  -14.4490    1.5356    1.7686 C   0  0  1  0  0  0  0  0  0  0  0  0
  -13.9672    0.6891    2.7713 O   0  0  0  0  0  0  0  0  0  0  0  0
  -14.4039    0.7634    0.4793 C   0  0  0  0  0  3  0  0  0  0  0  0
  -14.8382    1.6172   -0.7048 C   0  0  1  0  0  0  0  0  0  0  0  0
  -13.6596    1.9363   -1.6009 C   0  0  0  0  0  3  0  0  0  0  0  0
  -12.6517    2.8137   -0.9348 C   0  0  2  0  0  0  0  0  0  0  0  0
  -13.1835    4.1412   -0.5026 C   0  0  0  0  0  0  0  0  0  0  0  0
  -11.5358    2.9118   -1.7642 O   0  0  0  0  0  0  0  0  0  0  0  0
  -11.0432    1.6370   -1.9420 C   0  0  0  0  0  0  0  0  0  0  0  0
   -9.8335    1.5485   -2.8117 C   0  0  0  0  0  0  0  0  0  0  0  0
   -8.8244    2.3112   -2.2257 O   0  0  0  0  0  0  0  0  0  0  0  0
   -8.5051    1.8484   -0.9505 C   0  0  1  0  0  0  0  0  0  0  0  0
   -9.6035    1.8936   -0.0948 O   0  0  0  0  0  0  0  0  0  0  0  0
   -8.0350    0.4071   -0.9855 C   0  0  2  0  0  0  0  0  0  0  0  0
   -9.0714   -0.3928   -1.5179 O   0  0  0  0  0  0  0  0  0  0  0  0
   -7.7960    0.0101    0.4772 C   0  0  0  0  0  3  0  0  0  0  0  0
   -7.3261   -1.4232    0.4996 C   0  0  0  0  0  3  0  0  0  0  0  0
   -5.8310   -1.4800    0.7073 C   0  0  0  0  0  0  0  0  0  0  0  0
   -5.2886   -0.1975    0.8228 O   0  0  0  0  0  0  0  0  0  0  0  0
   -3.9931   -0.2345    1.0031 O   0  0  0  0  0  0  0  0  0  0  0  0
   -3.4527   -1.3095    0.4079 N   0  0  0  0  0  0  0  0  0  0  0  0
   -3.0010   -2.2126    1.4542 C   0  0  2  0  0  0  0  0  0  0  0  0
   -2.0589   -1.6488    2.2820 O   0  0  0  0  0  0  0  0  0  0  0  0
   -2.6010   -3.5465    0.8891 C   0  0  0  0  0  3  0  0  0  0  0  0
   -2.1552   -4.4053    2.0138 C   0  0  0  0  0  0  0  0  0  0  0  0
   -0.8965   -4.4692    2.3622 C   0  0  0  0  0  0  0  0  0  0  0  0
    0.0442   -3.7219    1.6707 O   0  0  0  0  0  0  0  0  0  0  0  0
   -0.1442   -3.3879    0.3063 C   0  0  0  0  0  3  0  0  0  0  0  0
    1.1271   -3.5514   -0.3741 N   0  0  0  0  0  0  0  0  0  0  0  0
    2.1808   -2.8600    0.3807 C   0  0  2  0  0  0  0  0  0  0  0  0
    1.8683   -1.3915    0.4155 C   0  0  0  0  0  2  0  0  0  0  0  0
    3.4260   -3.1191   -0.2193 O   0  0  0  0  0  0  0  0  0  0  0  0
    3.6935   -2.7639   -1.5299 C   0  0  0  0  0  0  0  0  0  0  0  0
    4.6777   -1.9317   -1.7851 C   0  0  0  0  0  0  0  0  0  0  0  0
    5.4277   -1.4265   -0.7377 O   0  0  0  0  0  0  0  0  0  0  0  0
    6.6269   -2.0954   -0.3950 C   0  0  1  0  0  0  0  0  0  0  0  0
    6.3283   -3.5199   -0.0003 C   0  0  0  0  0  2  0  0  0  0  0  0
    7.5182   -2.0879   -1.6144 C   0  0  0  0  0  0  0  0  0  0  0  0
    8.8183   -2.8052   -1.2658 C   0  0  0  0  0  3  0  0  0  0  0  0
    9.4290   -2.0129   -0.1102 C   0  0  0  0  0  0  0  0  0  0  0  0
   10.7439   -2.6504    0.3160 C   0  0  2  0  0  0  0  0  0  0  0  0
   11.2330   -1.8745    1.3658 O   0  0  0  0  0  0  0  0  0  0  0  0
   11.6957   -2.5139   -0.8599 C   0  0  0  0  0  3  0  0  0  0  0  0
   11.8661   -1.0506   -1.1581 C   0  0  1  0  0  0  0  0  0  0  0  0
   10.5431   -0.4390   -1.5016 C   0  0  0  0  0  0  0  0  0  0  0  0
   12.5017   -0.4497   -0.0851 O   0  0  0  0  0  0  0  0  0  0  0  0
   12.6814    0.9201   -0.3168 C   0  0  2  0  0  0  0  0  0  0  0  0
   11.3971    1.4431   -0.4886 O   0  0  0  0  0  0  0  0  0  0  0  0
   13.5161    1.0916   -1.5656 C   0  0  0  0  0  0  0  0  0  0  0  0
   13.7542    2.4158   -1.8842 O   0  0  0  0  0  0  0  0  0  0  0  0
   14.4342    3.1009   -0.8897 C   0  0  0  0  0  3  0  0  0  0  0  0
   13.4796    3.5237    0.2144 C   0  0  2  0  0  0  0  0  0  0  0  0
   12.4648    4.3425   -0.3013 O   0  0  0  0  0  0  0  0  0  0  0  0
   14.2237    4.2862    1.2989 C   0  0  0  0  0  3  0  0  0  0  0  0
   15.2299    3.5093    1.8532 O   0  0  0  0  0  0  0  0  0  0  0  0
   14.9390    2.1565    1.8950 C   0  0  0  0  0  3  0  0  0  0  0  0
   15.9253    1.3836    1.0443 C   0  0  0  0  0  0  0  0  0  0  0  0
   17.0353    0.9998    1.8201 O   0  0  0  0  0  0  0  0  0  0  0  0
   17.8893    0.3171    1.0331 N   0  0  0  0  0  0  0  0  0  0  0  0
   18.2604    1.1489    0.0329 O   0  0  0  0  0  0  0  0  0  0  0  0
  1  2  1  0
  2  3  1  0
  3  4  1  0
  4  5  1  1
  4  6  1  0
  6  7  1  6
  6  8  1  0
  8  9  1  1
  8 10  1  0
 10 11  1  0
 11 12  1  6
 12 13  1  0
 13 14  1  6
 13 15  1  0
 15 16  1  0
 16 17  1  0
 17 18  1  0
 18 19  1  0
 19 20  1  1
 19 21  1  0
 21 22  1  1
 21 23  1  0
 23 24  1  0
 24 25  1  0
 25 26  1  0
 26 27  1  0
 27 28  1  0
 28 29  1  0
 29 30  1  6
 29 31  1  0
 31 32  1  0
 32 33  2  3
 33 34  1  0
 34 35  1  0
 35 36  1  0
 36 37  1  0
 37 38  1  6
 37 39  1  0
 39 40  1  0
 40 41  2  3
 41 42  1  0
 42 43  1  0
 43 44  1  6
 43 45  1  0
 45 46  1  0
 46 47  1  0
 47 48  1  0
 48 49  1  1
 48 50  1  0
 50 51  1  0
 51 52  1  1
 51 53  1  0
 53 54  1  0
 54 55  1  6
 54 56  1  0
 56 57  1  0
 57 58  1  0
 58 59  1  0
 59 60  1  6
 59 61  1  0
 61 62  1  0
 62 63  1  0
 63 64  1  0
 64 65  1  0
 65 66  1  0
 66 67  1  0
 11  1  1  0
M  RAD  8   2   2  10   2  12   2  23   2  24   2  31   2  35   2  38   3
M  RAD  6  44   3  46   2  50   2  58   2  61   2  63   2
M  END
>  <fragInfo>  (1) 
1 2 3 4 5 6 7 8 9 10 11
12
13 14
15
16
17
18
19 20
21 22
23
24
25
26
27
28
29 30
31
32 33
34
35
36
37 38
39
40 41
42
43 44
45
46
47
48 49
50
51 52
53
54 55
56
57
58
59 60
61
62
63
64
65
66 67


>  <torsionInfo>  (1) 
11 12 0 1
12 13 1 2
13 15 2 3
15 16 3 4
16 17 4 5
17 18 5 6
18 19 6 7
19 21 7 8
21 23 8 9
23 24 9 10
24 25 10 11
25 26 11 12
26 27 12 13
27 28 13 14
28 29 14 15
29 31 15 16
31 32 16 17
33 34 17 18
34 35 18 19
35 36 19 20
36 37 20 21
37 39 21 22
39 40 22 23
41 42 23 24
42 43 24 25
43 45 25 26
45 46 26 27
46 47 27 28
47 48 28 29
48 50 29 30
50 51 30 31
51 53 31 32
53 54 32 33
54 56 33 34
56 57 34 35
57 58 35 36
58 59 36 37
59 61 37 38
61 62 38 39
62 63 39 40
63 64 40 41
64 65 41 42
65 66 42 43


>  <atomInfo>  (1) 
1  -0.0464791C 
2  -0.0356328C 
3  -0.0212196C 
4  0.08270853C 
5  -0.3903172OA
6  0.10597272C 
7  -0.3877077OA
8  0.08587406C 
9  -0.3900126OA
10 -0.0037112C 
11 -0.0296914C 
12 -0.0064684C 
13 0.05823211C 
14 -0.0383787C 
15 -0.3758035OA
16 0.07049775C 
17 0.07330397C 
18 -0.3477832OA
19 0.18069741C 
20 -0.3658109OA
21 0.10819182C 
22 -0.3875224OA
23 0.00112174C 
24 -0.0031884C 
25 0.08773713C 
26 -0.2177217OA
27 -0.1406528OA
28 -0.1406433NA
29 0.13665713C 
30 -0.3757243OA
31 0.03196169C 
32 -0.0418521C 
33 0.08205992C 
34 -0.4776502OA
35 0.20257543C 
36 -0.2421529NA
37 0.15565762C 
38 0.02608985C 
39 -0.4793157OA
40 0.11978716C 
41 0.11785324C 
42 -0.4945169OA
43 0.10187898C 
44 0.00933300C 
45 -0.0123941C 
46 -0.0323589C 
47 -0.0233648C 
48 0.06000126C 
49 -0.3927137OA
50 0.01871905C 
51 0.06367823C 
52 -0.0381642C 
53 -0.3470519OA
54 0.17799802C 
55 -0.3660234OA
56 0.09810827C 
57 -0.3673208OA
58 0.11500845C 
59 0.11158644C 
60 -0.3874761OA
61 0.11539687C 
62 -0.3640561OA
63 0.11201998C 
64 0.09974530C 
65 -0.2740474OA
66 -0.0824734NA
67 -0.2920218OA


$$$$
