
     RDKit          3D

 20 20  0  0  0  0  0  0  0  0999 V2000
    0.2325   -1.1631    0.0857 C   0  0  0  0  0  0  0  0  0  0  0  0
   -0.7953   -1.9283    0.5003 O   0  0  0  0  0  0  0  0  0  0  0  0
   -1.6963   -2.1843   -0.5433 C   0  0  0  0  0  3  0  0  0  0  0  0
   -2.9879   -2.3608   -0.0507 O   0  0  0  0  0  0  0  0  0  0  0  0
   -3.3649   -1.3007    0.7573 C   0  0  2  0  0  0  0  0  0  0  0  0
   -4.8309   -0.9960    0.5963 C   0  0  0  0  0  0  0  0  0  0  0  0
   -2.4707   -0.1283    0.4930 C   0  0  1  0  0  0  0  0  0  0  0  0
   -2.6802    0.3265   -0.8765 N   0  0  0  0  0  0  0  0  0  0  0  0
   -1.3522    0.5664   -1.4382 C   0  0  0  0  0  3  0  0  0  0  0  0
   -0.4281    1.2227   -0.4576 C   0  0  0  0  0  0  0  0  0  0  0  0
    0.0985    0.3138    0.4748 C   0  0  2  0  0  0  0  0  0  0  0  0
    1.0874    0.5728    1.3402 O   0  0  0  0  0  0  0  0  0  0  0  0
    2.3059    0.8260    0.8179 O   0  0  0  0  0  0  0  0  0  0  0  0
    2.5093    1.7701   -0.1171 C   0  0  0  0  0  0  0  0  0  0  0  0
    3.9075    1.7806   -0.3415 O   0  0  0  0  0  0  0  0  0  0  0  0
    4.3416    0.5469   -0.7770 C   0  0  0  0  0  3  0  0  0  0  0  0
    5.8311    0.4198   -0.3698 C   0  0  0  0  0  0  0  0  0  0  0  0
    6.2268   -1.4642   -0.0878 Br  0  0  0  0  0  0  0  0  0  0  0  0
   -2.6129    0.9927    1.4852 C   0  0  0  0  0  3  0  0  0  0  0  0
   -3.3211    2.1875    0.9099 C   0  0  0  0  0  2  0  0  0  0  0  0
  1  2  1  0
  2  3  1  0
  3  4  1  0
  4  5  1  0
  5  6  1  6
  5  7  1  0
  7  8  1  0
  8  9  1  0
  9 10  1  0
 10 11  1  0
 11 12  1  6
 12 13  1  0
 13 14  1  0
 14 15  1  0
 15 16  1  0
 16 17  1  0
 17 18  1  0
  7 19  1  1
 19 20  1  0
 11  1  1  0
M  RAD  5   3   2   9   2  16   2  19   2  20   3
M  END
>  <fragInfo>  (1) 
1 2 3 4 5 6 7 8 9 10 11
12
13
14
15
16
17 18
19 20


>  <torsionInfo>  (1) 
7 19 0 7
11 12 0 1
12 13 1 2
13 14 2 3
14 15 3 4
15 16 4 5
16 17 5 6


>  <atomInfo>  (1) 
1  0.07948263C 
2  -0.3451009OA
3  0.20935472C 
4  -0.3432579OA
5  0.07364468C 
6  -0.0369951C 
7  0.03664294C 
8  -0.3067296NA
9  0.02523811C 
10 -0.0042219C 
11 0.11797458C 
12 -0.2284793OA
13 -0.2075815OA
14 0.18079914C 
15 -0.3453812OA
16 0.09722473C 
17 0.03222911C 
18 -0.0898779Br
19 -0.0153272C 
20 -0.0297366C 


$$$$
