
     RDKit          3D

 25 24  0  0  0  0  0  0  0  0999 V2000
    6.3823    2.1856    0.2203 C   0  0  0  0  0  0  0  0  0  0  0  0
    7.4432    1.4535    0.9721 C   0  0  0  0  0  0  0  0  0  0  0  0
    8.4492    2.4032    1.5695 C   0  0  0  0  0  0  0  0  0  0  0  0
    6.8992    0.5132    2.0240 C   0  0  0  0  0  0  0  0  0  0  0  0
    6.0140   -0.5425    1.4538 C   0  0  0  0  0  0  0  0  0  0  0  0
    4.8068    0.0211    0.7407 C   0  0  0  0  0  0  0  0  0  0  0  0
    3.9982   -1.1434    0.2133 C   0  0  1  0  0  0  0  0  0  0  0  0
    3.5382   -2.0544    1.3222 C   0  0  0  0  0  0  0  0  0  0  0  0
    2.8144   -0.6377   -0.6070 C   0  0  0  0  0  3  0  0  0  0  0  0
    2.0261   -1.8233   -1.1201 C   0  0  0  0  0  0  0  0  0  0  0  0
    0.8581   -1.2737   -1.9307 C   0  0  0  0  0  0  0  0  0  0  0  0
    0.0331   -0.4199   -1.0063 C   0  0  2  0  0  0  0  0  0  0  0  0
    0.7898    0.7320   -0.4194 C   0  0  0  0  0  0  0  0  0  0  0  0
   -0.6606   -1.2516    0.0512 C   0  0  0  0  0  0  0  0  0  0  0  0
   -1.5646   -2.2392   -0.6620 C   0  0  0  0  0  0  0  0  0  0  0  0
   -2.5707   -1.5174   -1.4817 C   0  0  0  0  0  0  0  0  0  0  0  0
   -2.6116   -0.1800   -1.5337 C   0  0  0  0  0  0  0  0  0  0  0  0
   -3.6457    0.4678   -2.3748 C   0  0  0  0  0  3  0  0  0  0  0  0
   -5.0168   -0.0435   -1.9829 C   0  0  0  0  0  0  0  0  0  0  0  0
   -5.2321    0.3013   -0.5286 C   0  0  1  0  0  0  0  0  0  0  0  0
   -5.1516    1.6954   -0.4261 O   0  0  0  0  0  0  0  0  0  0  0  0
   -6.6170   -0.1801   -0.1535 C   0  0  0  0  0  0  0  0  0  0  0  0
   -6.9244    0.1218    1.2892 C   0  0  0  0  0  0  0  0  0  0  0  0
   -6.8677    1.6084    1.5781 C   0  0  0  0  0  0  0  0  0  0  0  0
   -7.1897    1.8034    3.0458 C   0  0  0  0  0  0  0  0  0  0  0  0
  1  2  1  0
  2  3  1  0
  2  4  1  0
  4  5  1  0
  5  6  1  0
  6  7  1  0
  7  8  1  1
  7  9  1  0
  9 10  1  0
 10 11  1  0
 11 12  1  0
 12 13  1  1
 12 14  1  0
 14 15  1  0
 15 16  1  0
 16 17  2  3
 17 18  1  0
 18 19  1  0
 19 20  1  0
 20 21  1  6
 20 22  1  0
 22 23  1  0
 23 24  1  0
 24 25  1  0
M  RAD  2   9   2  18   2
M  END
>  <fragInfo>  (1) 
1 2 3
4
5
6
7 8
9
10
11
12 13
14
15
16 17
18
19
20 21
22
23
24 25


>  <torsionInfo>  (1) 
2 4 0 1
4 5 1 2
5 6 2 3
6 7 3 4
7 9 4 5
9 10 5 6
10 11 6 7
11 12 7 8
12 14 8 9
14 15 9 10
15 16 10 11
17 18 11 12
18 19 12 13
19 20 13 14
20 22 14 15
22 23 15 16
23 24 16 17


>  <atomInfo>  (1) 
1  -0.0627736C 
2  -0.0471324C 
3  -0.0627736C 
4  -0.0509643C 
5  -0.0527983C 
6  -0.0504266C 
7  -0.0411603C 
8  -0.0622342C 
9  -0.0357404C 
10 -0.0496644C 
11 -0.0504160C 
12 -0.0439750C 
13 -0.0624985C 
14 -0.0472309C 
15 -0.0348090C 
16 -0.0882266C 
17 -0.0847345C 
18 -0.0145017C 
19 -0.0201183C 
20 0.05456692C 
21 -0.3931082OA
22 -0.0269959C 
23 -0.0511098C 
24 -0.0560768C 
25 -0.0653807C 


$$$$
