
     RDKit          3D

 11 11  0  0  0  0  0  0  0  0999 V2000
    2.9359    1.4084    0.4117 N   0  0  0  0  0  0  0  0  0  0  0  0
    2.9565    0.2457    0.9310 C   0  0  0  0  0  0  0  0  0  0  0  0
    2.2658   -0.9382    0.3806 C   0  0  0  0  0  0  0  0  0  0  0  0
    0.8792   -0.5409    0.0115 C   0  0  0  0  0  0  0  0  0  0  0  0
    0.5763   -0.0615   -1.2477 C   0  0  0  0  0  0  0  0  0  0  0  0
   -0.7014    0.3125   -1.6115 C   0  0  0  0  0  0  0  0  0  0  0  0
   -1.7480    0.2227   -0.7200 C   0  0  0  0  0  0  0  0  0  0  0  0
   -3.0505    0.5939   -1.0607 O   0  0  0  0  0  0  0  0  0  0  0  0
   -1.4559   -0.2550    0.5408 C   0  0  0  0  0  0  0  0  0  0  0  0
   -2.4824   -0.3596    1.4648 O   0  0  0  0  0  0  0  0  0  0  0  0
   -0.1756   -0.6279    0.8996 C   0  0  0  0  0  0  0  0  0  0  0  0
  1  2  2  0
  2  3  1  0
  3  4  1  0
  4  5  2  0
  5  6  1  0
  6  7  2  0
  7  8  1  0
  7  9  1  0
  9 10  1  0
  9 11  2  0
 11  4  1  0
M  END
>  <fragInfo>  (1) 
4 5 6 7 8 9 10 11
1 2
3


>  <torsionInfo>  (1) 
3 4 2 0
2 3 1 2


>  <atomInfo>  (1) 
1  -0.3127689NA
2  -0.0003827C 
3  0.00728379C 
4  -0.0387570A 
5  -0.0547179A 
6  -0.0160541A 
7  0.15690448A 
8  -0.5042598OA
9  0.15717468A 
10 -0.5042531OA
11 -0.0127532A 


$$$$
