
     RDKit          3D

 22 22  0  0  0  0  0  0  0  0999 V2000
    6.1996    1.7878   -1.0202 C   0  0  0  0  0  0  0  0  0  0  0  0
    5.3317    0.7159   -1.1037 O   0  0  0  0  0  0  0  0  0  0  0  0
    4.0550    1.1747   -1.5519 C   0  0  0  0  0  3  0  0  0  0  0  0
    3.1176    0.2443   -0.9863 O   0  0  0  0  0  0  0  0  0  0  0  0
    3.0509    0.6120    0.3302 C   0  0  2  0  0  0  0  0  0  0  0  0
    4.3655    0.3190    0.9981 C   0  0  0  0  0  0  0  0  0  0  0  0
    4.4285    0.8924    2.3823 C   0  0  0  0  0  2  0  0  0  0  0  0
    1.9343   -0.1820    1.0711 C   0  0  1  0  0  0  0  0  0  0  0  0
    0.7239    0.3577    1.0026 O   0  0  0  0  0  0  0  0  0  0  0  0
    0.1340    0.6406   -0.1950 C   0  0  0  0  0  3  0  0  0  0  0  0
   -1.0441   -0.3453   -0.2805 C   0  0  2  0  0  0  0  0  0  0  0  0
   -0.4262   -1.6610   -0.5339 C   0  0  0  0  0  0  0  0  0  0  0  0
   -1.0271   -2.3556   -1.3708 O   0  0  0  0  0  0  0  0  0  0  0  0
   -2.0723    0.0927   -1.2436 C   0  0  0  0  0  0  0  0  0  0  0  0
   -3.2128   -0.9286   -1.1332 C   0  0  0  0  0  3  0  0  0  0  0  0
   -3.9952   -0.6405   -0.0362 O   0  0  0  0  0  0  0  0  0  0  0  0
   -5.2945   -0.3742   -0.3833 C   0  0  0  0  0  3  0  0  0  0  0  0
   -6.0396   -0.0151    0.7389 O   0  0  0  0  0  0  0  0  0  0  0  0
   -5.8404    1.3209    1.0494 C   0  0  0  0  0  3  0  0  0  0  0  0
   -7.0781    1.9551    1.0512 O   0  0  0  0  0  0  0  0  0  0  0  0
    1.9740   -1.5181    0.3000 C   0  0  0  0  0  3  0  0  0  0  0  0
    0.7154   -2.0925    0.1405 O   0  0  0  0  0  0  0  0  0  0  0  0
  1  2  1  0
  2  3  1  0
  3  4  1  0
  4  5  1  0
  5  6  1  1
  6  7  1  0
  5  8  1  0
  8  9  1  0
  9 10  1  0
 10 11  1  0
 11 12  1  0
 12 13  2  0
 11 14  1  6
 14 15  1  0
 15 16  1  0
 16 17  1  0
 17 18  1  0
 18 19  1  0
 19 20  1  0
  8 21  1  6
 21 22  1  0
 22 12  1  0
M  RAD  7   3   2   7   3  10   2  15   2  17   2  19   2  21   2
M  END
>  <fragInfo>  (1) 
8 9 10 11 12 13 21 22
1 2
3
4
5
6 7
14
15
16
17
18
19 20


>  <torsionInfo>  (1) 
5 8 4 0
11 14 0 6
2 3 1 2
3 4 2 3
4 5 3 4
5 6 4 5
14 15 6 7
15 16 7 8
16 17 8 9
17 18 9 10
18 19 10 11


>  <atomInfo>  (1) 
1  0.03885652C 
2  -0.3513301OA
3  0.20903617C 
4  -0.3417174OA
5  0.09114293C 
6  -0.0204786C 
7  -0.0324251C 
8  0.12495232C 
9  -0.3646050OA
10 0.09859746C 
11 0.08818527C 
12 0.31179819C 
13 -0.2518278OA
14 -0.0080027C 
15 0.08810268C 
16 -0.3417787OA
17 0.21216387C 
18 -0.3131931OA
19 0.20915402C 
20 -0.3638728OA
21 0.16978330C 
22 -0.4550994OA


$$$$
