
     RDKit          3D

 40 39  0  0  0  0  0  0  0  0999 V2000
  -11.4036    0.6419    3.1680 C   0  0  0  0  0  0  0  0  0  0  0  0
  -10.8206    1.2466    1.9124 C   0  0  0  0  0  0  0  0  0  0  0  0
  -11.0981    2.7442    1.8416 C   0  0  0  0  0  0  0  0  0  0  0  0
   -9.3219    0.9748    1.7978 C   0  0  0  0  0  0  0  0  0  0  0  0
   -9.1690   -0.5365    1.7702 C   0  0  0  0  0  0  0  0  0  0  0  0
   -7.7151   -0.9340    1.6564 C   0  0  0  0  0  0  0  0  0  0  0  0
   -7.6208   -2.4396    1.6330 C   0  0  1  0  0  0  0  0  0  0  0  0
   -8.1956   -3.0463    2.8898 C   0  0  0  0  0  0  0  0  0  0  0  0
   -8.3812   -2.9714    0.4437 C   0  0  0  0  0  0  0  0  0  0  0  0
   -7.8160   -2.4309   -0.8511 C   0  0  0  0  0  0  0  0  0  0  0  0
   -6.3678   -2.8616   -0.9475 C   0  0  0  0  0  0  0  0  0  0  0  0
   -5.7284   -2.3531   -2.2286 C   0  0  0  0  0  3  0  0  0  0  0  0
   -5.7904   -0.8480   -2.2400 C   0  0  0  0  0  3  0  0  0  0  0  0
   -5.5368   -0.2637   -0.8653 C   0  0  0  0  0  2  0  0  0  0  0  0
   -4.0681    0.1389   -0.8252 C   0  0  0  0  0  3  0  0  0  0  0  0
   -3.2526   -1.1253   -0.9200 C   0  0  0  0  0  3  0  0  0  0  0  0
   -1.8020   -0.7981   -1.9427 S   0  0  0  0  0  0  0  0  0  0  0  0
   -1.8547    0.9317   -2.4720 C   0  0  1  0  0  0  0  0  0  0  0  0
   -1.6960    1.8874   -1.3319 C   0  0  0  0  0  2  0  0  0  0  0  0
   -0.8060    1.1103   -3.5501 C   0  0  0  0  0  0  0  0  0  0  0  0
    0.5288    0.7570   -2.9254 C   0  0  0  0  0  0  0  0  0  0  0  0
    0.7328    1.7250   -1.7635 C   0  0  2  0  0  0  0  0  0  0  0  0
    0.7233    3.1280   -2.3779 C   0  0  0  0  0  0  0  0  0  0  0  0
    2.0845    1.4152   -1.1582 C   0  0  0  0  0  0  0  0  0  0  0  0
    3.1033    1.6250   -2.2652 C   0  0  0  0  0  0  0  0  0  0  0  0
    4.4761    1.3095   -1.6272 C   0  0  2  0  0  0  0  0  0  0  0  0
    4.3313   -0.0431   -1.2131 O   0  0  0  0  0  0  0  0  0  0  0  0
    4.5695    2.2168   -0.4325 C   0  0  0  0  0  0  0  0  0  0  0  0
    6.0813    2.1007    0.5083 S   0  0  0  0  0  0  0  0  0  0  0  0
    7.5109    2.6753   -0.3850 C   0  0  0  0  0  0  0  0  0  0  0  0
    7.9143    1.7954   -1.4727 C   0  0  0  0  0  0  0  0  0  0  0  0
    8.4188    0.4489   -1.2224 C   0  0  0  0  0  0  0  0  0  0  0  0
    7.4208   -0.7018   -0.3528 S   0  0  0  0  0  0  0  0  0  0  0  0
    7.1617   -0.4035    1.3916 C   0  0  0  0  0  0  0  0  0  0  0  0
    8.6916   -0.5681    2.3544 S   0  0  0  0  0  0  0  0  0  0  0  0
    9.8775    0.7501    1.9107 C   0  0  0  0  0  0  0  0  0  0  0  0
   11.1466    0.5692    2.7308 C   0  0  0  0  0  0  0  0  0  0  0  0
   11.8967   -1.0477    2.3881 S   0  0  0  0  0  0  0  0  0  0  0  0
   10.7575   -2.3004    2.9980 C   0  0  0  0  0  0  0  0  0  0  0  0
   11.0176   -2.9722    3.9755 O   0  0  0  0  0  0  0  0  0  0  0  0
  1  2  1  0
  2  3  1  0
  2  4  1  0
  4  5  1  0
  5  6  1  0
  6  7  1  0
  7  8  1  1
  7  9  1  0
  9 10  1  0
 10 11  1  0
 11 12  1  0
 12 13  1  0
 13 14  1  0
 14 15  1  0
 15 16  1  0
 16 17  1  0
 17 18  1  0
 18 19  1  1
 18 20  1  0
 20 21  1  0
 21 22  1  0
 22 23  1  6
 22 24  1  0
 24 25  1  0
 25 26  1  0
 26 27  1  1
 26 28  1  0
 28 29  1  0
 29 30  1  0
 30 31  1  0
 31 32  1  0
 32 33  1  0
 33 34  1  0
 34 35  1  0
 35 36  1  0
 36 37  1  0
 37 38  1  0
 38 39  1  0
 39 40  2  0
M  RAD  6  12   2  13   2  14   3  15   2  16   2  19   3
M  END
>  <fragInfo>  (1) 
1 2 3
4
5
6
7 8
9
10
11
12
13
14
15
16
17
18 19
20
21
22 23
24
25
26 27
28
29
30
31
32
33
34
35
36
37
38
39 40


>  <torsionInfo>  (1) 
2 4 0 1
4 5 1 2
5 6 2 3
6 7 3 4
7 9 4 5
9 10 5 6
10 11 6 7
11 12 7 8
12 13 8 9
13 14 9 10
14 15 10 11
15 16 11 12
16 17 12 13
17 18 13 14
18 20 14 15
20 21 15 16
21 22 16 17
22 24 17 18
24 25 18 19
25 26 19 20
26 28 20 21
28 29 21 22
29 30 22 23
30 31 23 24
31 32 24 25
32 33 25 26
33 34 26 27
34 35 27 28
35 36 28 29
36 37 29 30
37 38 30 31
38 39 31 32


>  <atomInfo>  (1) 
1  -0.0627736C 
2  -0.0471324C 
3  -0.0627736C 
4  -0.0509644C 
5  -0.0528087C 
6  -0.0507014C 
7  -0.0442797C 
8  -0.0625097C 
9  -0.0507007C 
10 -0.0527673C 
11 -0.0498651C 
12 -0.0345645C 
13 -0.0274631C 
14 -0.0084483C 
15 -0.0167402C 
16 0.02093569C 
17 -0.1533585SA
18 0.00849882C 
19 -0.0210299C 
20 -0.0407294C 
21 -0.0496448C 
22 -0.0441448C 
23 -0.0625074C 
24 -0.0482213C 
25 -0.0259371C 
26 0.06302521C 
27 -0.3922708OA
28 0.01938908C 
29 -0.1592809SA
30 -0.0058711C 
31 -0.0349740C 
32 -0.0051362C 
33 -0.1510455SA
34 0.03919008C 
35 -0.1502029SA
36 0.00362784C 
37 0.00966775C 
38 -0.0908479SA
39 0.17573331C 
40 -0.2909519OA


$$$$
