
     RDKit          3D

 21 21  0  0  0  0  0  0  0  0999 V2000
   -5.1469   -2.4042    0.4940 C   0  0  0  0  0  0  0  0  0  0  0  0
   -3.9803   -1.6975    0.2416 O   0  0  0  0  0  0  0  0  0  0  0  0
   -4.1997   -0.3611    0.0680 C   0  0  0  0  0  3  0  0  0  0  0  0
   -4.1376    0.4028    1.2369 O   0  0  0  0  0  0  0  0  0  0  0  0
   -3.9017    1.7020    0.8176 C   0  0  2  0  0  0  0  0  0  0  0  0
   -5.1445    2.2632    0.1417 C   0  0  0  0  0  0  0  0  0  0  0  0
   -2.7134    1.9247   -0.0283 C   0  0  0  0  0  3  0  0  0  0  0  0
   -1.7816    0.7100    0.0448 C   0  0  1  0  0  0  0  0  0  0  0  0
   -1.1737    0.5019   -1.3216 C   0  0  0  0  0  3  0  0  0  0  0  0
    0.0834   -0.2821   -1.2683 C   0  0  0  0  0  0  0  0  0  0  0  0
    1.0000    0.1672   -0.1509 C   0  0  1  0  0  0  0  0  0  0  0  0
    1.1184   -0.9666    0.8400 C   0  0  0  0  0  0  0  0  0  0  0  0
    2.2326    0.4915   -0.5897 O   0  0  0  0  0  0  0  0  0  0  0  0
    2.9772   -0.3528   -1.1995 O   0  0  0  0  0  0  0  0  0  0  0  0
    3.2622   -1.4710   -0.3529 C   0  0  0  0  0  0  0  0  0  0  0  0
    4.2933   -1.0237    0.6222 C   0  0  0  0  0  0  0  0  0  0  0  0
    5.6075   -0.5868    0.1623 C   0  0  1  0  0  0  0  0  0  0  0  0
    6.5232   -1.5215   -0.2391 O   0  0  0  0  0  0  0  0  0  0  0  0
    5.3829    0.3071   -1.1357 C   0  0  0  0  0  2  0  0  0  0  0  0
   -0.7445    0.8907    1.1096 C   0  0  0  0  0  0  0  0  0  0  0  0
    0.4430    1.3061    0.4785 O   0  0  0  0  0  0  0  0  0  0  0  0
  1  2  1  0
  2  3  1  0
  3  4  1  0
  4  5  1  0
  5  6  1  6
  5  7  1  0
  8  7  1  6
  8  9  1  0
  9 10  1  0
 10 11  1  0
 11 12  1  1
 11 13  1  0
 13 14  1  0
 14 15  1  0
 15 16  1  0
 16 17  1  0
 17 18  1  0
 17 19  1  6
  8 20  1  0
 20 21  1  0
 21 11  1  0
M  RAD  4   3   2   7   2   9   2  19   3
M  END
>  <fragInfo>  (1) 
8 9 10 11 12 20 21
1 2
3
4
5 6
7
13
14
15
16
17 18 19


>  <torsionInfo>  (1) 
7 8 5 0
11 13 0 6
2 3 1 2
3 4 2 3
4 5 3 4
5 7 4 5
13 14 6 7
14 15 7 8
15 16 8 9
16 17 9 10


>  <atomInfo>  (1) 
1  0.03885651C 
2  -0.3513313OA
3  0.20894051C 
4  -0.3446068OA
5  0.06160070C 
6  -0.0382520C 
7  -0.0041670C 
8  -0.0087196C 
9  -0.0273895C 
10 0.00750003C 
11 0.19851639C 
12 -0.0074816C 
13 -0.2013650OA
14 -0.2336531OA
15 0.08480653C 
16 9.93648988C 
17 0.05985501C 
18 -0.3927234OA
19 -0.0038300C 
20 0.05360522C 
21 -0.3471880OA


$$$$
