
     RDKit          3D

 19 20  0  0  0  0  0  0  0  0999 V2000
   -0.0453   -0.6519    0.2094 C   0  0  1  0  0  0  0  0  0  0  0  0
    0.2511   -1.5311    1.2431 O   0  0  0  0  0  0  0  0  0  0  0  0
   -0.7866   -2.2124    1.8549 C   0  0  0  0  0  0  0  0  0  0  0  0
   -2.0170   -1.7493    1.6375 C   0  0  0  0  0  0  0  0  0  0  0  0
   -2.3821   -0.6768    0.8790 C   0  0  0  0  0  0  0  0  0  0  0  0
   -3.0442    0.2036    0.3377 C   0  0  0  0  0  0  0  0  0  0  0  0
   -2.3563    1.1776   -0.5802 C   0  0  0  0  0  0  0  0  0  0  0  0
   -1.0721    1.4343   -0.4375 C   0  0  0  0  0  0  0  0  0  0  0  0
   -0.2949    2.3740   -1.2845 C   0  0  0  0  0  0  0  0  0  0  0  0
   -0.3377    0.7455    0.6505 C   0  0  2  0  0  0  0  0  0  0  0  0
    0.7861    1.5080    1.1739 C   0  0  0  0  0  0  0  0  0  0  0  0
    2.0853    1.3343    1.2865 C   0  0  0  0  0  0  0  0  0  0  0  0
    2.9904    0.2287    0.9055 C   0  0  0  0  0  0  0  0  0  0  0  0
    3.1732    0.2565   -0.5954 C   0  0  1  0  0  0  0  0  0  0  0  0
    4.4913   -0.3921   -0.9550 C   0  0  0  0  0  0  0  0  0  0  0  0
    2.0294   -0.4173   -1.2849 C   0  0  0  0  0  0  0  0  0  0  0  0
    0.7868   -0.7673   -0.9719 C   0  0  0  0  0  0  0  0  0  0  0  0
    0.1732   -1.3686   -2.0081 F   0  0  0  0  0  0  0  0  0  0  0  0
   -4.4304    0.5042    0.4134 O   0  0  0  0  0  0  0  0  0  0  0  0
  1  2  1  1
  2  3  1  0
  3  4  2  3
  4  5  1  0
  5  6  2  3
  6  7  1  0
  7  8  2  3
  8  9  1  0
  8 10  1  0
 10 11  1  6
 11 12  2  3
 12 13  1  0
 13 14  1  0
 14 15  1  1
 14 16  1  0
 16 17  2  3
 17 18  1  0
  6 19  1  0
 10  1  1  0
 17  1  1  0
M  END
>  <fragInfo>  (1) 
1 2 3 4 5 6 7 8 9 10 11 12 13 14 15 16 17 18 19


>  <torsionInfo>  (1) 


>  <atomInfo>  (1) 
1  0.15852612C 
2  -0.4899727OA
3  0.08411014C 
4  -0.0238276C 
5  -0.0171857C 
6  0.11515687C 
7  -0.0205527C 
8  -0.0586487C 
9  -0.0427356C 
10 0.04159932C 
11 -0.0772382C 
12 -0.0872081C 
13 -0.0288784C 
14 -0.0197438C 
15 -0.0586050C 
16 -0.0458007C 
17 0.13765127C 
18 -0.2079768F 
19 -0.5079661OA


$$$$
