
     RDKit          3D

 15 15  0  0  0  0  0  0  0  0999 V2000
    5.1826    0.4765   -0.2064 C   0  0  0  0  0  0  0  0  0  0  0  0
    4.1564   -0.1865    0.6972 C   0  0  0  0  0  0  0  0  0  0  0  0
    2.7219    0.0895    0.2079 C   0  0  2  0  0  0  0  0  0  0  0  0
    2.5555    1.6182    0.2459 C   0  0  0  0  0  0  0  0  0  0  0  0
    1.7890   -0.4874    1.2253 C   0  0  0  0  0  3  0  0  0  0  0  0
    0.4187   -0.5287    0.8340 N   0  0  0  0  0  0  0  0  0  0  0  0
   -0.0209   -0.1246   -0.4673 C   0  0  0  0  0  0  0  0  0  0  0  0
    0.7759    0.2864   -1.3121 O   0  0  0  0  0  0  0  0  0  0  0  0
   -1.4800   -0.2123   -0.7973 C   0  0  1  0  0  0  0  0  0  0  0  0
   -1.8753   -1.6983   -0.7251 C   0  0  0  0  0  0  0  0  0  0  0  0
   -1.9798   -1.9637    0.7813 C   0  0  0  0  0  0  0  0  0  0  0  0
   -2.5308   -0.6938    1.3451 C   0  0  0  0  0  3  0  0  0  0  0  0
   -2.2701    0.4094    0.3354 C   0  0  2  0  0  0  0  0  0  0  0  0
   -3.5915    0.9262   -0.1503 C   0  0  0  0  0  0  0  0  0  0  0  0
   -3.8518    2.0892    0.0167 O   0  0  0  0  0  0  0  0  0  0  0  0
  1  2  1  0
  2  3  1  0
  3  4  1  1
  3  5  1  0
  5  6  1  0
  6  7  1  0
  7  8  2  0
  9  7  1  1
  9 10  1  0
 10 11  1  0
 11 12  1  0
 12 13  1  0
 13 14  1  6
 14 15  2  0
 13  9  1  0
M  RAD  2   5   2  12   2
M  END
>  <fragInfo>  (1) 
9 10 11 12 13
1 2
3 4
5
6 7 8
14 15


>  <torsionInfo>  (1) 
7 9 4 0
13 14 0 5
2 3 1 2
3 5 2 3
5 6 3 4


>  <atomInfo>  (1) 
1  -0.0650506C 
2  -0.0515410C 
3  -0.0220988C 
4  -0.0604803C 
5  0.05181883C 
6  -0.3507650N 
7  0.22363540C 
8  -0.2747806OA
9  0.04763690C 
10 -0.0406120C 
11 -0.0486692C 
12 -0.0275946C 
13 0.02928145C 
14 0.12365367C 
15 -0.3030498OA


$$$$
