
     RDKit          3D

 23 25  0  0  0  0  0  0  0  0999 V2000
    3.3102    2.4703    1.3360 C   0  0  0  0  0  0  0  0  0  0  0  0
    2.9503    1.2282    0.5942 C   0  0  1  0  0  0  0  0  0  0  0  0
    2.7846    0.0760    1.5389 C   0  0  0  0  0  0  0  0  0  0  0  0
    2.2927   -1.1769    0.9074 C   0  0  2  0  0  0  0  0  0  0  0  0
    3.2876   -1.9489    0.3332 O   0  0  0  0  0  0  0  0  0  0  0  0
    1.1409   -0.9088   -0.0175 C   0  0  2  0  0  0  0  0  0  0  0  0
    0.5384   -2.0202   -0.5226 O   0  0  0  0  0  0  0  0  0  0  0  0
    1.5487    0.1158   -1.0250 C   0  0  1  0  0  0  0  0  0  0  0  0
    0.7362    0.2181   -2.1157 O   0  0  0  0  0  0  0  0  0  0  0  0
    1.7109    1.4419   -0.2753 C   0  0  1  0  0  0  0  0  0  0  0  0
    0.5860    1.7163    0.5072 O   0  0  0  0  0  0  0  0  0  0  0  0
   -0.4378    0.8352    0.3432 C   0  0  1  0  0  0  0  0  0  0  0  0
   -1.1400    0.4263    1.5996 C   0  0  1  0  0  0  0  0  0  0  0  0
   -2.0512    1.5295    2.1284 C   0  0  0  0  0  0  0  0  0  0  0  0
   -2.0038   -0.6369    1.2555 O   0  0  0  0  0  0  0  0  0  0  0  0
   -1.2674   -1.7720    1.0386 C   0  0  0  0  0  3  0  0  0  0  0  0
   -0.8630   -2.0172   -0.3658 C   0  0  1  0  0  0  0  0  0  0  0  0
   -1.5257   -1.1948   -1.3961 C   0  0  1  0  0  0  0  0  0  0  0  0
   -2.2586   -2.0093   -2.2595 O   0  0  0  0  0  0  0  0  0  0  0  0
   -2.3159   -0.0377   -0.9172 C   0  0  2  0  0  0  0  0  0  0  0  0
   -3.2380    0.3056   -1.9178 O   0  0  0  0  0  0  0  0  0  0  0  0
   -1.4569    1.2130   -0.6805 C   0  0  1  0  0  0  0  0  0  0  0  0
   -2.3283    2.1464   -0.0891 O   0  0  0  0  0  0  0  0  0  0  0  0
  2  1  1  1
  2  3  1  0
  3  4  1  0
  4  5  1  6
  4  6  1  0
  6  7  1  6
  6  8  1  0
  8  9  1  6
  8 10  1  0
 10 11  1  1
 12 11  1  1
 12 13  1  0
 13 14  1  6
 13 15  1  0
 15 16  1  0
 17 16  1  1
 17 18  1  0
 18 19  1  1
 18 20  1  0
 20 21  1  6
 20 22  1  0
 22 23  1  1
 10  2  1  0
 17  7  1  0
 22 12  1  0
M  RAD  1  16   2
M  END
>  <fragInfo>  (1) 
1 2 3 4 5 6 7 8 9 10 11 12 13 14 15 16 17 18 19 20 21 22 23


>  <torsionInfo>  (1) 


>  <atomInfo>  (1) 
1  -0.0598290C 
2  -0.0125900C 
3  -0.0191740C 
4  0.08317783C 
5  -0.3903033OA
6  0.11237034C 
7  -0.3638470OA
8  0.10907478C 
9  -0.3875779OA
10 0.08929936C 
11 -0.3663995OA
12 0.11234208C 
13 0.08414713C 
14 -0.0359771C 
15 -0.3668270OA
16 0.11555532C 
17 0.11540779C 
18 0.11129517C 
19 -0.3874869OA
20 0.11100644C 
21 -0.3874975OA
22 0.11117327C 
23 -0.3874891OA


$$$$
