
     RDKit          3D

 33 34  0  0  0  0  0  0  0  0999 V2000
   -5.1068    0.5595   -1.7392 C   0  0  0  0  0  0  0  0  0  0  0  0
   -4.1119   -0.3182   -1.3803 O   0  0  0  0  0  0  0  0  0  0  0  0
   -2.8430    0.0988   -1.7870 C   0  0  0  0  0  3  0  0  0  0  0  0
   -2.0999    0.3072   -0.6269 O   0  0  0  0  0  0  0  0  0  0  0  0
   -2.0618   -0.8874    0.0847 C   0  0  2  0  0  0  0  0  0  0  0  0
   -3.1985   -0.8649    1.0862 C   0  0  0  0  0  0  0  0  0  0  0  0
   -0.7887   -1.1213    0.8224 C   0  0  1  0  0  0  0  0  0  0  0  0
   -0.4773   -2.5173    0.9999 N   0  0  0  0  0  0  0  0  0  0  0  0
   -0.2775   -3.2083   -0.2525 C   0  0  0  0  0  3  0  0  0  0  0  0
   -1.5447   -3.2813   -1.0755 C   0  0  0  0  0  0  0  0  0  0  0  0
   -2.3463   -4.5210   -0.7681 C   0  0  2  0  0  0  0  0  0  0  0  0
   -3.8873   -4.6229   -1.7555 S   0  0  0  0  0  0  0  0  0  0  0  0
   -3.7101   -4.0339   -0.2079 O   0  0  0  0  0  0  0  0  0  0  0  0
    0.3589   -0.2587    0.4399 C   0  0  2  0  0  0  0  0  0  0  0  0
    0.1663    0.5561   -0.6437 O   0  0  0  0  0  0  0  0  0  0  0  0
    0.7079    2.1695   -0.3420 S   0  0  0  0  0  0  0  0  0  0  0  0
   -0.5336    2.9681    0.5279 O   0  0  0  0  0  0  0  0  0  0  0  0
   -0.8380    2.2378    1.6610 C   0  0  0  0  0  3  0  0  0  0  0  0
   -2.2977    2.2840    2.0194 C   0  0  0  0  0  3  0  0  0  0  0  0
   -3.0024    3.2352    1.3255 O   0  0  0  0  0  0  0  0  0  0  0  0
   -4.2637    2.7498    0.9513 C   0  0  0  0  0  3  0  0  0  0  0  0
   -4.1535    2.2915   -0.3601 O   0  0  0  0  0  0  0  0  0  0  0  0
   -5.3354    1.6215   -0.6684 C   0  0  0  0  0  3  0  0  0  0  0  0
    1.5463   -0.9693    0.2994 O   0  0  0  0  0  0  0  0  0  0  0  0
    2.5439   -0.0657   -0.0558 C   0  0  0  0  0  3  0  0  0  0  0  0
    3.2421    0.3120    1.0761 O   0  0  0  0  0  0  0  0  0  0  0  0
    4.5930    0.1308    0.8604 C   0  0  0  0  0  3  0  0  0  0  0  0
    4.8269   -0.3074   -0.4269 O   0  0  0  0  0  0  0  0  0  0  0  0
    5.9978    0.2444   -0.9304 C   0  0  0  0  0  3  0  0  0  0  0  0
    7.0494   -0.1581   -0.0842 O   0  0  0  0  0  0  0  0  0  0  0  0
    7.9202    0.8449    0.0827 O   0  0  0  0  0  0  0  0  0  0  0  0
    7.5377    2.1260   -0.2223 C   0  0  0  0  0  0  0  0  0  0  0  0
    6.3878    2.3985   -0.6576 O   0  0  0  0  0  0  0  0  0  0  0  0
  1  2  1  0
  2  3  1  0
  3  4  1  0
  4  5  1  0
  5  6  1  1
  5  7  1  0
  7  8  1  6
  8  9  1  0
  9 10  1  0
 11 10  1  6
 11 12  1  0
 11 13  1  0
  7 14  1  0
 14 15  1  0
 15 16  1  0
 16 17  1  0
 17 18  1  0
 18 19  1  0
 19 20  1  0
 20 21  1  0
 21 22  1  0
 22 23  1  0
 14 24  1  6
 24 25  1  0
 25 26  1  0
 26 27  1  0
 27 28  1  0
 28 29  1  0
 29 30  1  0
 30 31  1  0
 31 32  1  0
 32 33  2  0
 23  1  1  0
 13 12  1  0
M  RAD  8   3   2   9   2  18   2  19   2  21   2  23   2  25   2  27   2
M  RAD  1  29   2
M  END
>  <fragInfo>  (1) 
1 2 3 4 5 6 7 14 15 16 17 18 19 20 21 22 23
8
9
10
11 12 13
24
25
26
27
28
29
30
31
32 33


>  <torsionInfo>  (1) 
7 8 0 1
14 24 0 5
8 9 1 2
9 10 2 3
10 11 3 4
24 25 5 6
25 26 6 7
26 27 7 8
27 28 8 9
28 29 9 10
29 30 10 11
30 31 11 12
31 32 12 13


>  <atomInfo>  (1) 
1  0.07902161C 
2  -0.3451194OA
3  0.20935746C 
4  -0.3430598OA
5  0.07836883C 
6  -0.0368025C 
7  0.08625668C 
8  -0.3027255NA
9  0.02619979C 
10 0.00335171C 
11 0.14477108C 
12 0.02616939SA
13 -0.2962053OA
14 0.19358669C 
15 -0.2573553OA
16 0.16135731SA
17 -0.2821680OA
18 0.13358971C 
19 0.12003955C 
20 -0.3388205OA
21 0.20985713C 
22 -0.3393110OA
23 0.11280688C 
24 -0.3153934OA
25 0.21447849C 
26 -0.3128081OA
27 0.21476701C 
28 -0.3094496OA
29 0.26088322C 
30 -0.1473086OA
31 -0.2988762OA
32 0.33042407C 
33 -0.2524933OA


$$$$
