
     RDKit          3D

 20 19  0  0  0  0  0  0  0  0999 V2000
   -4.1841    2.8308    0.5948 O   0  0  0  0  0  0  0  0  0  0  0  0
   -4.2148    1.8677   -0.4000 C   0  0  0  0  0  0  0  0  0  0  0  0
   -4.5052    0.4910    0.1401 C   0  0  0  0  0  3  0  0  0  0  0  0
   -3.2796   -0.1897    0.4901 N   0  0  0  0  0  0  0  0  0  0  0  0
   -2.2242    0.3945   -0.3137 C   0  0  2  0  0  0  0  0  0  0  0  0
   -2.4753    0.1652   -1.7754 C   0  0  0  0  0  0  0  0  0  0  0  0
   -2.5412   -1.1830   -2.1174 O   0  0  0  0  0  0  0  0  0  0  0  0
   -0.8821   -0.0626    0.1475 C   0  0  1  0  0  0  0  0  0  0  0  0
   -0.7460    0.3483    1.4937 O   0  0  0  0  0  0  0  0  0  0  0  0
   -0.7037   -1.5688    0.0750 C   0  0  2  0  0  0  0  0  0  0  0  0
   -1.6628   -2.2304    0.8498 O   0  0  0  0  0  0  0  0  0  0  0  0
    0.6469   -1.9303    0.6815 C   0  0  0  0  0  3  0  0  0  0  0  0
    1.7735   -1.2690   -0.0555 C   0  0  1  0  0  0  0  0  0  0  0  0
    1.9176   -1.6755   -1.3615 O   0  0  0  0  0  1  0  0  0  0  0  0
    1.6026    0.2436    0.0160 C   0  0  0  0  0  0  0  0  0  0  0  0
    2.6877    0.7777   -0.6934 O   0  0  0  0  0  0  0  0  0  0  0  0
    3.8457    0.3432   -0.0649 C   0  0  2  0  0  0  0  0  0  0  0  0
    3.9001    0.7636    1.2374 O   0  0  0  0  0  0  0  0  0  0  0  0
    5.0182    0.6500   -0.8897 C   0  0  0  0  0  0  0  0  0  0  0  0
    6.0268    1.2338   -0.5212 O   0  0  0  0  0  0  0  0  0  0  0  0
  1  2  1  0
  2  3  1  0
  3  4  1  0
  4  5  1  0
  5  6  1  6
  6  7  1  0
  5  8  1  0
  8  9  1  1
  8 10  1  0
 10 11  1  1
 10 12  1  0
 12 13  1  0
 13 14  1  6
 13 15  1  0
 15 16  1  0
 16 17  1  0
 17 18  1  1
 17 19  1  0
 19 20  2  0
M  CHG  1  14  -1
M  RAD  2   3   2  12   2
M  END
>  <fragInfo>  (1) 
1 2
3
4
5
6 7
8 9
10 11
12
13 14
15
16
17 18
19 20


>  <torsionInfo>  (1) 
2 3 0 1
3 4 1 2
4 5 2 3
5 6 3 4
5 8 3 5
8 10 5 6
10 12 6 7
12 13 7 8
13 15 8 9
15 16 9 10
16 17 10 11
17 19 11 12


>  <atomInfo>  (1) 
1  -0.3946905OA
2  0.06004187C 
3  0.04808498C 
4  -0.3028773NA
5  0.05917516C 
6  0.06106341C 
7  -0.3946489OA
8  0.09760598C 
9  -0.3886931OA
10 0.08368104C 
11 -0.3901049OA
12 -0.0185389C 
13 -0.0966092C 
14 -0.8500459OA
15 0.03809825C 
16 -0.3475086OA
17 0.21163310C 
18 -0.3621955OA
19 0.17528446C 
20 -0.2976900OA


$$$$
