
     RDKit          3D

  9  8  0  0  0  0  0  0  0  0999 V2000
    2.4822    0.7329    0.7614 C   0  0  0  0  0  0  0  0  0  0  0  0
    2.6275   -0.2841   -0.1825 O   0  0  0  0  0  0  0  0  0  0  0  0
    1.4201   -0.9046   -0.4582 C   0  0  0  0  0  3  0  0  0  0  0  0
    0.4857   -0.0535   -1.0057 O   0  0  0  0  0  0  0  0  0  0  0  0
   -0.5820    0.0998   -0.1217 C   0  0  2  0  0  0  0  0  0  0  0  0
   -1.4622   -1.1272   -0.1019 C   0  0  0  0  0  0  0  0  0  0  0  0
   -1.6338   -1.6403    1.1768 O   0  0  0  0  0  0  0  0  0  0  0  0
   -1.3536    1.3141   -0.5865 C   0  0  0  0  0  3  0  0  0  0  0  0
   -1.9839    1.8627    0.5183 O   0  0  0  0  0  0  0  0  0  0  0  0
  1  2  1  0
  2  3  1  0
  3  4  1  0
  4  5  1  0
  5  6  1  6
  6  7  1  0
  5  8  1  0
  8  9  1  0
M  RAD  2   3   2   8   2
M  END
>  <fragInfo>  (1) 
1 2
3
4
5
6 7
8 9


>  <torsionInfo>  (1) 
2 3 0 1
3 4 1 2
4 5 2 3
5 6 3 4
5 8 3 5


>  <atomInfo>  (1) 
1  0.03885653C 
2  -0.3513291OA
3  0.20911861C 
4  -0.3393400OA
5  0.11238243C 
6  0.07213388C 
7  -0.3935665OA
8  0.11099646C 
9  -0.3874995OA


$$$$
