
     RDKit          3D

 28 30  0  0  0  0  0  0  0  0999 V2000
   -2.8755    1.2215   -1.4261 C   0  0  0  0  0  0  0  0  0  0  0  0
   -1.3805    1.3469   -1.6108 C   0  0  2  0  0  0  0  0  0  0  0  0
   -0.7266    0.2103   -2.3087 C   0  0  0  0  0  0  0  0  0  0  0  0
   -0.9853   -1.0418   -1.5263 C   0  0  0  0  0  0  0  0  0  0  0  0
   -0.6630   -0.9802   -0.0834 C   0  0  2  0  0  0  0  0  0  0  0  0
   -0.7244   -2.3042    0.4116 O   0  0  0  0  0  0  0  0  0  0  0  0
   -1.5388   -0.1559    0.7771 C   0  0  2  0  0  0  0  0  0  0  0  0
   -2.9446   -0.6025    0.8113 C   0  0  0  0  0  0  0  0  0  0  0  0
   -3.8457    0.2096    1.6697 C   0  0  0  0  0  0  0  0  0  0  0  0
   -5.2485   -0.4054    1.5749 C   0  0  0  0  0  0  0  0  0  0  0  0
   -5.5916   -0.3295    0.2097 O   0  0  0  0  0  0  0  0  0  0  0  0
   -1.3221    1.1987    0.7052 O   0  0  0  0  0  0  0  0  0  0  0  0
   -0.5197    1.5728   -0.3240 C   0  0  2  0  0  0  0  0  0  0  0  0
   -0.7946    2.6315   -1.2989 C   0  0  2  0  0  0  0  0  0  0  0  0
   -1.6191    3.6580   -0.9114 O   0  0  0  0  0  0  0  0  0  0  0  0
    0.7960    0.9016   -0.4207 C   0  0  2  0  0  0  0  0  0  0  0  0
    1.3315    0.9454   -1.6884 O   0  0  0  0  0  0  0  0  0  0  0  0
    0.7795   -0.4754    0.1884 C   0  0  1  0  0  0  0  0  0  0  0  0
    0.8020   -0.2787    1.7071 C   0  0  0  0  0  0  0  0  0  0  0  0
    1.7648   -1.4195   -0.2935 C   0  0  1  0  0  0  0  0  0  0  0  0
    3.0532   -1.2215   -0.1728 O   0  0  0  0  0  0  0  0  0  0  0  0
    3.6447   -0.0303   -0.1947 C   0  0  0  0  0  0  0  0  0  0  0  0
    3.2654    0.9035    0.9190 C   0  0  0  0  0  0  0  0  0  0  0  0
    3.9738    2.2001    0.8088 C   0  0  0  0  0  0  0  0  0  0  0  0
    4.7421    2.3594   -0.1186 O   0  0  0  0  0  0  0  0  0  0  0  0
    1.2977   -2.7127   -0.2460 O   0  0  0  0  0  0  0  0  0  0  0  0
    2.1546   -3.6004   -0.6721 O   0  0  0  0  0  0  0  0  0  0  0  0
    3.1748   -3.8016    0.1937 N   0  0  0  0  0  0  0  0  0  0  0  0
  2  1  1  1
  2  3  1  0
  3  4  1  0
  4  5  1  0
  5  6  1  1
  5  7  1  0
  7  8  1  6
  8  9  1  0
  9 10  1  0
 10 11  1  0
  7 12  1  0
 13 12  1  1
 13 14  1  0
 14 15  1  1
 13 16  1  0
 16 17  1  6
 16 18  1  0
 18 19  1  1
 18 20  1  0
 20 21  1  1
 21 22  1  0
 22 23  1  0
 23 24  1  0
 24 25  2  0
 20 26  1  0
 26 27  1  0
 27 28  1  0
 13  2  1  0
 14  2  1  0
 18  5  1  0
M  END
>  <fragInfo>  (1) 
1 2 3 4 5 6 7 12 13 14 15 16 17 18 19
8
9
10 11
20
21
22
23
24 25
26
27 28


>  <torsionInfo>  (1) 
7 8 0 1
18 20 0 4
8 9 1 2
9 10 2 3
20 21 4 5
20 26 4 9
21 22 5 6
22 23 6 7
23 24 7 8
26 27 9 10


>  <atomInfo>  (1) 
1  -0.0540518C 
2  0.03080678C 
3  -0.0394213C 
4  -0.0199948C 
5  0.10372071C 
6  -0.3862918OA
7  0.08814040C 
8  -0.0216419C 
9  -0.0272990C 
10 0.04314996C 
11 -0.3963748OA
12 -0.3625951OA
13 0.12952506C 
14 0.09450022C 
15 -0.3892936OA
16 0.09939292C 
17 -0.3890867OA
18 0.08167261C 
19 -0.0490927C 
20 0.20358877C 
21 -0.3485551OA
22 0.05651427C 
23 0.02668808C 
24 0.12178914C 
25 -0.3033080OA
26 -0.1852936OA
27 -0.1433630OA
28 -0.1826870NA


$$$$
