
     RDKit          3D

 32 32  0  0  0  0  0  0  0  0999 V2000
    0.1413   -4.9669   -0.5849 C   0  0  0  0  0  0  0  0  0  0  0  0
   -0.8899   -4.4682    0.3462 C   0  0  2  0  0  0  0  0  0  0  0  0
   -1.1220   -5.4412    1.4867 C   0  0  0  0  0  0  0  0  0  0  0  0
   -2.1908   -4.3301   -0.4431 C   0  0  0  0  0  0  0  0  0  0  0  0
   -3.1523   -3.4809    0.3754 C   0  0  0  0  0  0  0  0  0  0  0  0
   -3.6302   -2.3115   -0.4556 C   0  0  0  0  0  0  0  0  0  0  0  0
   -4.9912   -1.8505   -0.0284 C   0  0  1  0  0  0  0  0  0  0  0  0
   -5.6749   -2.8829    0.8210 C   0  0  0  0  0  0  0  0  0  0  0  0
   -4.9082   -0.5289    0.6994 C   0  0  0  0  0  3  0  0  0  0  0  0
   -5.5343    0.5919   -0.1035 C   0  0  0  0  0  0  0  0  0  0  0  0
   -4.4852    1.4965   -0.7086 C   0  0  0  0  0  0  0  0  0  0  0  0
   -3.9623    2.4240    0.3603 C   0  0  2  0  0  0  0  0  0  0  0  0
   -5.0477    3.3071    0.9391 C   0  0  0  0  0  0  0  0  0  0  0  0
   -2.9188    3.3308   -0.2560 C   0  0  0  0  0  3  0  0  0  0  0  0
   -1.5564    2.9878    0.2991 C   0  0  0  0  0  0  0  0  0  0  0  0
   -0.6175    4.1617    0.2588 C   0  0  2  0  0  0  0  0  0  0  0  0
   -1.4282    5.4288    0.2175 C   0  0  0  0  0  0  0  0  0  0  0  0
    0.3475    4.0624   -0.8905 C   0  0  0  0  0  0  0  0  0  0  0  0
    1.5343    4.9621   -0.6133 C   0  0  0  0  0  0  0  0  0  0  0  0
    2.7742    4.0772   -0.5591 C   0  0  0  0  0  0  0  0  0  0  0  0
    2.8327    3.3455    0.7484 C   0  0  0  0  0  0  0  0  0  0  0  0
    3.5009    2.0069    0.6654 C   0  0  0  0  0  0  0  0  0  0  0  0
    3.9573    1.6728   -0.5828 O   0  0  0  0  0  0  0  0  0  0  0  0
    5.2940    1.3659   -0.6530 C   0  0  0  0  0  0  0  0  0  0  0  0
    5.7069    0.2109    0.2154 C   0  0  2  0  0  0  0  0  0  0  0  0
    7.1582    0.2986    0.6177 C   0  0  0  0  0  0  0  0  0  0  0  0
    5.5005   -1.1243   -0.4778 C   0  0  0  0  0  0  0  0  0  0  0  0
    4.1498   -1.2927   -0.7793 O   0  0  0  0  0  0  0  0  0  0  0  0
    3.7030   -2.4968   -0.3706 N   0  0  0  0  0  0  0  0  0  0  0  0
    2.3154   -2.3451    0.0066 C   0  0  0  0  0  0  0  0  0  0  0  0
    1.7941   -3.6328    0.6220 C   0  0  0  0  0  0  0  0  0  0  0  0
    1.4000   -4.5781   -0.4594 C   0  0  0  0  0  0  0  0  0  0  0  0
  1  2  1  0
  2  3  1  1
  2  4  1  0
  4  5  1  0
  5  6  1  0
  6  7  1  0
  7  8  1  1
  7  9  1  0
  9 10  1  0
 10 11  1  0
 11 12  1  0
 12 13  1  6
 12 14  1  0
 14 15  1  0
 15 16  1  0
 16 17  1  6
 16 18  1  0
 18 19  1  0
 19 20  1  0
 20 21  1  0
 21 22  1  0
 22 23  1  0
 23 24  1  0
 24 25  1  0
 25 26  1  6
 25 27  1  0
 27 28  1  0
 28 29  1  0
 29 30  1  0
 30 31  1  0
 31 32  1  0
  1 32  2  3
M  RAD  2   9   2  14   2
M  END
>  <fragInfo>  (1) 
1 2 3 4 5 6 7 8 9 10 11 12 13 14 15 16 17 18 19 20 21 22 23 24 25 26 27 28 29 30 31 32


>  <torsionInfo>  (1) 


>  <atomInfo>  (1) 
1  -0.0856466C 
2  -0.0261955C 
3  -0.0590098C 
4  -0.0472184C 
5  -0.0524916C 
6  -0.0504154C 
7  -0.0411601C 
8  -0.0622342C 
9  -0.0357403C 
10 -0.0496542C 
11 -0.0501520C 
12 -0.0411400C 
13 -0.0622339C 
14 -0.0354871C 
15 -0.0473243C 
16 -0.0439962C 
17 -0.0624991C 
18 -0.0506992C 
19 -0.0529678C 
20 -0.0511042C 
21 -0.0296031C 
22 0.04656947C 
23 -0.3810832OA
24 0.05139014C 
25 0.00485101C 
26 -0.0580109C 
27 0.07291977C 
28 -0.3014290OA
29 -0.2022520NA
30 0.02440729C 
31 -0.0201325C 
32 -0.0869177C 


$$$$
