
     RDKit          3D

 29 29  0  0  0  0  0  0  0  0999 V2000
   -6.7882   -0.0732    2.8969 C   0  0  0  0  0  0  0  0  0  0  0  0
   -7.8739    0.0381    1.8189 C   0  0  0  0  0  0  0  0  0  0  0  0
   -7.9565    1.5304    1.4842 C   0  0  0  0  0  0  0  0  0  0  0  0
   -7.4170   -0.7623    0.6356 C   0  0  0  0  0  0  0  0  0  0  0  0
   -6.1254   -0.2995    0.0460 C   0  0  0  0  0  0  0  0  0  0  0  0
   -4.9662   -0.3412    0.9869 C   0  0  0  0  0  0  0  0  0  0  0  0
   -4.6690   -1.7243    1.5169 C   0  0  1  0  0  0  0  0  0  0  0  0
   -4.3407   -2.6931    0.4016 C   0  0  0  0  0  0  0  0  0  0  0  0
   -3.4775   -1.5981    2.4590 C   0  0  0  0  0  3  0  0  0  0  0  0
   -2.2661   -1.0474    1.7065 C   0  0  0  0  0  0  0  0  0  0  0  0
   -2.6497    0.2971    1.1734 C   0  0  0  0  0  0  0  0  0  0  0  0
   -1.5172    0.9143    0.4180 C   0  0  2  0  0  0  0  0  0  0  0  0
   -1.8737    2.2593   -0.1260 C   0  0  0  0  0  0  0  0  0  0  0  0
   -0.9681    0.0053   -0.6539 C   0  0  0  0  0  0  0  0  0  0  0  0
    0.1674    0.7141   -1.3589 C   0  0  1  0  0  0  0  0  0  0  0  0
   -0.4134    1.9355   -1.9340 N   0  0  0  0  0  0  0  0  0  0  0  0
    1.2041    1.1550   -0.3703 C   0  0  0  0  0  0  0  0  0  0  0  0
    1.8153    0.0293    0.4074 C   0  0  0  0  0  0  0  0  0  0  0  0
    2.4806   -0.9182   -0.6169 C   0  0  2  0  0  0  0  0  0  0  0  0
    3.0746   -2.0198    0.1907 C   0  0  0  0  0  0  0  0  0  0  0  0
    3.4389   -0.1503   -1.4644 C   0  0  0  0  0  0  0  0  0  0  0  0
    4.5405    0.4850   -0.6740 C   0  0  0  0  0  0  0  0  0  0  0  0
    5.4624   -0.4613    0.0016 C   0  0  0  0  0  0  0  0  0  0  0  0
    6.2796   -1.3328   -0.8948 C   0  0  1  0  0  0  0  0  0  0  0  0
    5.5283   -2.1274   -1.7181 O   0  0  0  0  0  0  0  0  0  0  0  0
    7.2935   -0.5357   -1.6527 C   0  0  2  0  0  0  0  0  0  0  0  0
    8.3185    0.2414   -1.1344 C   0  0  0  0  0  0  0  0  0  0  0  0
    7.1861    0.9353   -1.6404 C   0  0  0  0  0  0  0  0  0  0  0  0
    6.5126    2.2024   -1.9048 C   0  0  0  0  0  0  0  0  0  0  0  0
  1  2  1  0
  2  3  1  0
  2  4  1  0
  4  5  1  0
  5  6  1  0
  6  7  1  0
  7  8  1  6
  7  9  1  0
  9 10  1  0
 10 11  1  0
 11 12  1  0
 12 13  1  6
 12 14  1  0
 14 15  1  0
 15 16  1  1
 15 17  1  0
 17 18  1  0
 18 19  1  0
 19 20  1  1
 19 21  1  0
 21 22  1  0
 22 23  1  0
 23 24  1  0
 24 25  1  6
 24 26  1  0
 26 27  1  1
 27 28  2  0
 28 29  1  0
 28 26  1  0
M  RAD  1   9   2
M  END
>  <fragInfo>  (1) 
26 27 28 29
1 2 3
4
5
6
7 8
9
10
11
12 13
14
15 16
17
18
19 20
21
22
23
24 25


>  <torsionInfo>  (1) 
24 26 18 0
2 4 1 2
4 5 2 3
5 6 3 4
6 7 4 5
7 9 5 6
9 10 6 7
10 11 7 8
11 12 8 9
12 14 9 10
14 15 10 11
15 17 11 12
17 18 12 13
18 19 13 14
19 21 14 15
21 22 15 16
22 23 16 17
23 24 17 18


>  <atomInfo>  (1) 
1  -0.0627736C 
2  -0.0471324C 
3  -0.0627736C 
4  -0.0509643C 
5  -0.0527983C 
6  -0.0504266C 
7  -0.0411603C 
8  -0.0622342C 
9  -0.0357404C 
10 -0.0496636C 
11 -0.0503693C 
12 -0.0427982C 
13 -0.0624517C 
14 -0.0353990C 
15 0.00414145C 
16 -0.3277012NA
17 -0.0377250C 
18 -0.0492377C 
19 -0.0442209C 
20 -0.0625087C 
21 -0.0506147C 
22 -0.0505595C 
23 -0.0260929C 
24 0.06395955C 
25 -0.3921788OA
26 0.02377925C 
27 -0.0751816C 
28 -0.0671365C 
29 -0.0432198C 


$$$$
