
     RDKit          3D

 41 44  0  0  0  0  0  0  0  0999 V2000
    0.3063    0.1719   -1.5669 C   0  0  1  0  0  0  0  0  0  0  0  0
    1.3685    1.1933   -1.4287 C   0  0  2  0  0  0  0  0  0  0  0  0
    0.8439    2.5456   -1.8677 C   0  0  0  0  0  0  0  0  0  0  0  0
    2.5113    0.8430   -2.3594 C   0  0  0  0  0  0  0  0  0  0  0  0
    3.4002   -0.2138   -1.7277 C   0  0  0  0  0  0  0  0  0  0  0  0
    4.3907    0.5046   -0.8258 C   0  0  0  0  0  0  0  0  0  0  0  0
    5.7065   -0.2369   -0.9465 C   0  0  1  0  0  0  0  0  0  0  0  0
    6.5980    0.4452   -1.9526 C   0  0  0  0  0  0  0  0  0  0  0  0
    6.3507   -0.3659    0.4053 C   0  0  0  0  0  3  0  0  0  0  0  0
    5.4540    0.0162    1.5407 C   0  0  0  0  0  0  0  0  0  0  0  0
    4.7116   -1.1645    2.1309 C   0  0  0  0  0  0  0  0  0  0  0  0
    3.5686   -0.5982    2.9778 C   0  0  2  0  0  0  0  0  0  0  0  0
    4.1213   -0.4250    4.3855 C   0  0  0  0  0  0  0  0  0  0  0  0
    2.4060   -1.5374    3.0567 C   0  0  0  0  0  3  0  0  0  0  0  0
    1.0933   -0.9004    2.6724 C   0  0  0  0  0  0  0  0  0  0  0  0
    1.2443    0.0436    1.4987 C   0  0  2  0  0  0  0  0  0  0  0  0
    2.2571    1.1424    1.8469 C   0  0  0  0  0  2  0  0  0  0  0  0
   -0.0793    0.7361    1.3121 C   0  0  0  0  0  0  0  0  0  0  0  0
   -1.0551   -0.0457    0.4430 C   0  0  0  0  0  0  0  0  0  0  0  0
   -1.0010    0.5184   -0.9165 C   0  0  1  0  0  0  0  0  0  0  0  0
   -1.3161    1.9938   -0.8936 C   0  0  0  0  0  0  0  0  0  0  0  0
   -2.6546    2.2013   -0.2479 C   0  0  0  0  0  0  0  0  0  0  0  0
   -2.7179    1.7062    1.1502 C   0  0  0  0  0  3  0  0  0  0  0  0
   -4.0685    1.9174    1.7971 C   0  0  1  0  0  0  0  0  0  0  0  0
   -5.0224    1.2294    1.0437 O   0  0  0  0  0  0  0  0  0  0  0  0
   -4.0424    1.1957    3.4549 S   0  0  0  0  0  0  0  0  0  0  0  0
   -5.5507    0.4583    3.8080 O   0  0  0  0  0  0  0  0  0  0  0  0
   -6.1308   -0.1303    2.7012 C   0  0  0  0  0  0  0  0  0  0  0  0
   -5.1963   -0.0522    1.5333 C   0  0  0  0  0  3  0  0  0  0  0  0
   -5.5954   -1.0233    0.4310 C   0  0  0  0  0  0  0  0  0  0  0  0
   -5.5842   -2.4384    0.9140 C   0  0  0  0  0  0  0  0  0  0  0  0
   -1.6760   -0.1571   -2.0669 C   0  0  1  0  0  0  0  0  0  0  0  0
   -3.1227    0.7853   -2.6870 S   0  0  0  0  0  0  0  0  0  0  0  0
   -0.4700    0.2473   -2.9069 C   0  0  1  0  0  0  0  0  0  0  0  0
   -0.4912    1.5552   -3.5705 C   0  0  0  0  0  2  0  0  0  0  0  0
    0.4215   -0.8387   -3.3818 C   0  0  2  0  0  0  0  0  0  0  0  0
   -0.2985   -1.8769   -4.1961 C   0  0  0  0  0  0  0  0  0  0  0  0
    0.6297   -1.1996   -1.9176 C   0  0  2  0  0  0  0  0  0  0  0  0
   -0.0734   -2.3583   -1.4143 C   0  0  1  0  0  0  0  0  0  0  0  0
   -0.1136   -2.6495    0.0253 C   0  0  0  0  0  2  0  0  0  0  0  0
   -1.1232   -2.9853   -2.2543 C   0  0  0  0  0  1  0  0  0  0  0  0
  1  2  1  6
  2  3  1  6
  2  4  1  0
  4  5  1  0
  5  6  1  0
  6  7  1  0
  7  8  1  6
  7  9  1  0
  9 10  1  0
 10 11  1  0
 11 12  1  0
 12 13  1  1
 12 14  1  0
 14 15  1  0
 15 16  1  0
 16 17  1  1
 16 18  1  0
 18 19  1  0
 19 20  1  0
 20 21  1  1
 21 22  1  0
 22 23  1  0
 24 23  1  6
 24 25  1  0
 24 26  1  0
 26 27  1  0
 27 28  1  0
 28 29  1  0
 29 30  1  0
 30 31  1  0
 20 32  1  0
 32 33  1  6
 32 34  1  0
 34 35  1  6
 34 36  1  0
 36 37  1  6
 36 38  1  0
 38 39  1  1
 39 40  1  1
 39 41  1  0
 20  1  1  0
 34  1  1  0
 38  1  1  0
 29 25  1  0
M  RAD  8   9   2  14   2  17   3  23   2  29   2  35   3  40   3  41   2
M  END
>  <fragInfo>  (1) 
1 2 3 4 5 6 7 8 9 10 11 12 13 14 15 16 17 18 19 20 32 33 34 35 36 37 38
21
22
23
24 25 26 27 28 29
30 31
39 40 41


>  <torsionInfo>  (1) 
20 21 0 1
38 39 0 6
21 22 1 2
22 23 2 3
23 24 3 4
29 30 4 5


>  <atomInfo>  (1) 
1  -0.0097947C 
2  -0.0371439C 
3  -0.0619246C 
4  -0.0501173C 
5  -0.0527668C 
6  -0.0504260C 
7  -0.0411603C 
8  -0.0622342C 
9  -0.0357403C 
10 -0.0496542C 
11 -0.0501520C 
12 -0.0411397C 
13 -0.0622339C 
14 -0.0354661C 
15 -0.0467747C 
16 -0.0377089C 
17 -0.0317894C 
18 -0.0495609C 
19 -0.0456726C 
20 -0.0107065C 
21 -0.0455420C 
22 -0.0460547C 
23 0.00302490C 
24 0.13264123C 
25 -0.3529100OA
26 0.02355848SA
27 -0.3095124OA
28 0.09352568C 
29 0.12520645C 
30 -0.0213452C 
31 -0.0624261C 
32 0.01466688C 
33 -0.1746972SA
34 -0.0044998C 
35 -0.0263538C 
36 -0.0329398C 
37 -0.0616078C 
38 -0.0274251C 
39 -0.0268759C 
40 -0.0308435C 
41 -0.0050286C 


$$$$
