
     RDKit          3D

 18 17  0  0  0  0  0  0  0  0999 V2000
    6.0620   -0.1092   -0.2195 C   0  0  0  0  0  0  0  0  0  0  0  0
    5.5100    0.7370    0.8521 C   0  0  0  0  0  0  0  0  0  0  0  0
    4.2653    1.2009    0.8419 C   0  0  0  0  0  0  0  0  0  0  0  0
    3.4080    0.8319   -0.3218 C   0  0  0  0  0  0  0  0  0  0  0  0
    4.3223    0.8479   -1.5536 C   0  0  0  0  0  0  0  0  0  0  0  0
    2.3021    1.8403   -0.5376 C   0  0  0  0  0  0  0  0  0  0  0  0
    2.9217   -0.5136   -0.1885 N   0  0  0  0  0  0  0  0  0  0  0  0
    2.1296   -1.0046    0.8536 C   0  0  0  0  0  0  0  0  0  0  0  0
    0.8234   -0.8474    0.8330 C   0  0  0  0  0  0  0  0  0  0  0  0
    0.2236   -0.1531   -0.2954 C   0  0  0  0  0  0  0  0  0  0  0  0
   -1.0659    0.0059   -0.3224 C   0  0  0  0  0  0  0  0  0  0  0  0
   -1.9769   -0.4673    0.7115 C   0  0  0  0  0  0  0  0  0  0  0  0
   -3.2665   -0.3019    0.6728 C   0  0  0  0  0  0  0  0  0  0  0  0
   -3.9565    0.3854   -0.4249 C   0  0  0  0  0  0  0  0  0  0  0  0
   -2.9805    1.0064   -1.7376 Cl  0  0  0  0  0  0  0  0  0  0  0  0
   -5.2582    0.5417   -0.4446 C   0  0  0  0  0  0  0  0  0  0  0  0
   -6.0705    0.0289    0.6406 C   0  0  0  0  0  0  0  0  0  0  0  0
   -7.3929    0.1767    0.6402 C   0  0  0  0  0  0  0  0  0  0  0  0
  1  2  1  0
  2  3  2  3
  3  4  1  0
  4  5  1  0
  4  6  1  0
  4  7  1  0
  7  8  1  0
  8  9  2  3
  9 10  1  0
 10 11  2  3
 11 12  1  0
 12 13  2  3
 13 14  1  0
 14 15  1  0
 14 16  2  3
 16 17  1  0
 17 18  2  0
M  END
>  <fragInfo>  (1) 
1 2 3
4 5 6
7
8 9
10 11
12 13
14 15 16
17 18


>  <torsionInfo>  (1) 
3 4 0 1
4 7 1 2
7 8 2 3
9 10 3 4
11 12 4 5
13 14 5 6
16 17 6 7


>  <atomInfo>  (1) 
1  -0.0469047C 
2  -0.0893703C 
3  -0.0641575C 
4  0.04938871C 
5  -0.0385486C 
6  -0.0385486C 
7  -0.3825432N 
8  -0.0029559C 
9  -0.0464789C 
10 -0.0608333C 
11 -0.0621632C 
12 -0.0607877C 
13 -0.0435290C 
14 0.04052742C 
15 -0.0843448Cl
16 -0.0441167C 
17 -0.0680136C 
18 -0.0990139C 


$$$$
