
     RDKit          3D

 18 19  0  0  0  0  0  0  0  0999 V2000
   -2.0633    0.5748    0.9611 C   0  0  1  0  0  0  0  0  0  0  0  0
   -2.6079    1.8451    0.4214 C   0  0  0  0  0  2  0  0  0  0  0  0
   -3.5093    1.5089   -0.7552 C   0  0  0  0  0  0  0  0  0  0  0  0
   -4.5326    0.5379   -0.2225 C   0  0  2  0  0  0  0  0  0  0  0  0
   -5.1882    1.1906    0.8408 O   0  0  0  0  0  0  0  0  0  0  0  0
   -4.0281   -0.6353    0.2244 O   0  0  0  0  0  0  0  0  0  0  0  0
   -2.7719   -0.6525    0.7160 C   0  0  2  0  0  0  0  0  0  0  0  0
   -2.5381   -1.7017    1.6407 O   0  0  0  0  0  0  0  0  0  0  0  0
   -1.5719   -0.3824   -0.1478 C   0  0  2  0  0  0  0  0  0  0  0  0
   -0.2460   -1.0125    0.2019 C   0  0  0  0  0  0  0  0  0  0  0  0
    0.8223    0.0619    0.3960 C   0  0  0  0  0  0  0  0  0  0  0  0
    2.1260   -0.6237    0.7435 C   0  0  0  0  0  0  0  0  0  0  0  0
    2.4584   -1.5412   -0.4363 C   0  0  0  0  0  3  0  0  0  0  0  0
    2.5823   -0.6290   -1.6561 C   0  0  0  0  0  3  0  0  0  0  0  0
    3.7081    0.3267   -1.3774 C   0  0  0  0  0  0  0  0  0  0  0  0
    4.9854   -0.4482   -1.1594 C   0  0  0  0  0  3  0  0  0  0  0  0
    6.1351    0.4811   -0.8774 C   0  0  0  0  0  0  0  0  0  0  0  0
    6.2397    0.7074    0.4864 O   0  0  0  0  0  0  0  0  0  0  0  0
  1  2  1  6
  2  3  1  0
  3  4  1  0
  4  5  1  1
  4  6  1  0
  6  7  1  0
  7  8  1  1
  7  9  1  0
  9 10  1  1
 10 11  1  0
 11 12  1  0
 12 13  1  0
 13 14  1  0
 14 15  1  0
 15 16  1  0
 16 17  1  0
 17 18  1  0
  7  1  1  0
  9  1  1  0
M  RAD  4   2   3  13   2  14   2  16   2
M  END
>  <fragInfo>  (1) 
1 2 3 4 5 6 7 8 9
10
11
12
13
14
15
16
17 18


>  <torsionInfo>  (1) 
9 10 0 1
10 11 1 2
11 12 2 3
12 13 3 4
13 14 4 5
14 15 5 6
15 16 6 7
16 17 7 8


>  <atomInfo>  (1) 
1  0.02812826C 
2  -0.0027294C 
3  0.00557377C 
4  0.15809430C 
5  -0.3678318OA
6  -0.3209488OA
7  0.17526974C 
8  -0.3648199OA
9  0.02177057C 
10 -0.0447891C 
11 -0.0525442C 
12 -0.0498833C 
13 -0.0351799C 
14 -0.0348208C 
15 -0.0444987C 
16 -0.0128008C 
17 0.04623779C 
18 -0.3960755OA


$$$$
