
     RDKit          3D

 62 62  0  0  0  0  0  0  0  0999 V2000
  -14.6939    2.1790    2.3167 C   0  0  0  0  0  0  0  0  0  0  0  0
  -13.5296    2.9123    1.6961 C   0  0  0  0  0  0  0  0  0  0  0  0
  -13.6650    3.0404    0.2027 C   0  0  0  0  0  0  0  0  0  0  0  0
  -12.2043    2.3214    2.1155 C   0  0  0  0  0  0  0  0  0  0  0  0
  -12.0737    0.8701    1.7105 C   0  0  0  0  0  0  0  0  0  0  0  0
  -10.7131    0.3917    2.1821 C   0  0  0  0  0  0  0  0  0  0  0  0
  -10.5024   -1.0608    1.8135 C   0  0  1  0  0  0  0  0  0  0  0  0
  -11.5751   -1.9065    2.4682 C   0  0  0  0  0  0  0  0  0  0  0  0
  -10.6477   -1.2513    0.3179 C   0  0  0  0  0  3  0  0  0  0  0  0
  -10.4224   -2.7300    0.0351 C   0  0  0  0  0  0  0  0  0  0  0  0
  -10.5550   -2.9816   -1.4344 C   0  0  0  0  0  0  0  0  0  0  0  0
   -9.5630   -2.2020   -2.2609 C   0  0  0  0  0  3  0  0  0  0  0  0
   -9.6850   -0.7162   -2.0992 C   0  0  0  0  0  0  0  0  0  0  0  0
   -8.1793   -2.7014   -1.9799 C   0  0  0  0  0  3  0  0  0  0  0  0
   -7.6180   -1.9936   -0.7752 C   0  0  0  0  0  0  0  0  0  0  0  0
   -7.5652   -0.5250   -1.0471 C   0  0  1  0  0  0  0  0  0  0  0  0
   -7.0395    0.2248    0.0578 N   0  0  0  0  0  3  0  0  0  0  0  0
   -7.0463   -0.3138    1.1769 N   0  0  0  0  0  2  0  0  0  0  0  0
   -6.8567   -0.1794   -2.3398 C   0  0  1  0  0  0  0  0  0  0  0  0
   -6.8880    1.3271   -2.4687 C   0  0  0  0  0  0  0  0  0  0  0  0
   -5.4023   -0.6633   -2.2881 C   0  0  2  0  0  0  0  0  0  0  0  0
   -4.7265   -0.3121   -3.5711 C   0  0  0  0  0  1  0  0  0  0  0  0
   -5.3452   -2.1488   -2.0632 C   0  0  0  0  0  0  0  0  0  0  0  0
   -4.8305   -0.0506   -1.1777 O   0  0  0  0  0  0  0  0  0  0  0  0
   -3.4951   -0.4077   -1.0137 C   0  0  0  0  0  0  0  0  0  0  0  0
   -2.6598   -0.0158   -2.2141 C   0  0  0  0  0  0  0  0  0  0  0  0
   -1.2340   -0.4425   -1.9425 C   0  0  2  0  0  0  0  0  0  0  0  0
   -1.1318   -1.9290   -1.7284 O   0  0  0  0  0  0  0  0  0  0  0  0
   -0.7126   -1.0101   -0.7827 C   0  0  2  0  0  0  0  0  0  0  0  0
   -1.3130   -1.0281    0.6022 C   0  0  1  0  0  0  0  0  0  0  0  0
   -1.0946   -2.2439    1.2442 O   0  0  0  0  0  0  0  0  0  0  0  0
   -0.5738    0.0445    1.4058 C   0  0  0  0  0  0  0  0  0  0  0  0
    0.8847   -0.3567    1.4019 C   0  0  2  0  0  0  0  0  0  0  0  0
    1.3841   -0.4186    0.0945 O   0  0  0  0  0  0  0  0  0  0  0  0
    1.0795   -1.6972    2.0965 C   0  0  0  0  0  0  0  0  0  0  0  0
    2.5622   -2.0178    2.0453 C   0  0  0  0  0  0  0  0  0  0  0  0
    3.0275   -2.0988    0.6068 C   0  0  0  0  0  0  0  0  0  0  0  0
    4.4851   -2.4136    0.5257 C   0  0  0  0  0  0  0  0  0  0  0  0
    5.3566   -1.3984    1.1927 C   0  0  1  0  0  0  0  0  0  0  0  0
    6.7933   -1.7911    1.0634 C   0  0  0  0  0  0  0  0  0  0  0  0
    5.1359   -0.0448    0.5825 C   0  0  0  0  0  0  0  0  0  0  0  0
    5.9968    1.0188    1.2239 C   0  0  0  0  0  3  0  0  0  0  0  0
    5.7277    2.3345    0.5735 C   0  0  0  0  0  0  0  0  0  0  0  0
    6.5423    3.4505    1.1476 C   0  0  2  0  0  0  0  0  0  0  0  0
    6.1009    4.7139    0.3701 C   0  0  0  0  0  2  0  0  0  0  0  0
    7.9876    3.2873    0.8594 C   0  0  0  0  0  3  0  0  0  0  0  0
    8.2636    3.2410   -0.6126 C   0  0  0  0  0  0  0  0  0  0  0  0
    7.8291    4.5385   -1.2553 C   0  0  0  0  0  0  0  0  0  0  0  0
    8.6195    5.6753   -0.6231 C   0  0  0  0  0  0  0  0  0  0  0  0
   10.0829    5.3891   -0.8922 C   0  0  0  0  0  2  0  0  0  0  0  0
    8.7682    2.3557    1.6705 C   0  0  0  0  0  0  0  0  0  0  0  0
    8.6916    1.0177    1.3805 O   0  0  0  0  0  0  0  0  0  0  0  0
    9.1295    0.7282    0.0789 C   0  0  0  0  0  3  0  0  0  0  0  0
   10.6190    0.6385   -0.0093 C   0  0  0  0  0  3  0  0  0  0  0  0
   11.2783    1.9152    0.5132 C   0  0  0  0  0  0  0  0  0  0  0  0
   12.7837    1.8079    0.4163 C   0  0  0  0  0  2  0  0  0  0  0  0
   11.2056   -0.5532    0.6792 C   0  0  0  0  0  3  0  0  0  0  0  0
   11.7355   -1.5512   -0.3396 C   0  0  1  0  0  0  0  0  0  0  0  0
   12.8101   -0.9099   -1.1910 C   0  0  0  0  0  2  0  0  0  0  0  0
   12.3249   -2.7091    0.4506 C   0  0  0  0  0  0  0  0  0  0  0  0
   12.8842   -3.7660   -0.4786 C   0  0  0  0  0  3  0  0  0  0  0  0
   13.4523   -4.8838    0.3436 C   0  0  0  0  0  0  0  0  0  0  0  0
  1  2  1  0
  2  3  1  0
  2  4  1  0
  4  5  1  0
  5  6  1  0
  6  7  1  0
  7  8  1  1
  7  9  1  0
  9 10  1  0
 10 11  1  0
 11 12  1  0
 12 13  1  0
 12 14  1  0
 14 15  1  0
 16 15  1  1
 16 17  1  0
 17 18  2  0
 16 19  1  0
 19 20  1  1
 19 21  1  0
 21 22  1  6
 21 23  1  0
 21 24  1  0
 24 25  1  0
 25 26  1  0
 27 26  1  1
 27 28  1  0
 29 28  1  6
 29 30  1  0
 30 31  1  1
 30 32  1  0
 32 33  1  0
 33 34  1  6
 33 35  1  0
 35 36  1  0
 36 37  1  0
 37 38  1  0
 38 39  1  0
 39 40  1  6
 39 41  1  0
 41 42  1  0
 42 43  1  0
 43 44  1  0
 44 45  1  6
 44 46  1  0
 46 47  1  0
 47 48  1  0
 48 49  1  0
 49 50  1  0
 46 51  1  0
 51 52  1  0
 52 53  1  0
 53 54  1  0
 54 55  1  0
 55 56  1  0
 54 57  1  0
 57 58  1  0
 58 59  1  1
 58 60  1  0
 60 61  1  0
 61 62  1  0
 29 27  1  0
M  RAD  8   9   2  12   2  14   2  17   2  22   2  42   2  45   3  46   2
M  CHG  2  17   1  18  -1
M  RAD  7  50   3  53   2  54   2  56   3  57   2  59   3  61   2
M  END
>  <fragInfo>  (1) 
1 2 3
4
5
6
7 8
9
10
11
12 13
14
15
16
17 18
19 20
21 22 23
24
25
26
27 28 29
30 31
32
33 34
35
36
37
38
39 40
41
42
43
44 45
46
47
48
49 50
51
52
53
54
55 56
57
58 59
60
61 62


>  <torsionInfo>  (1) 
2 4 0 1
4 5 1 2
5 6 2 3
6 7 3 4
7 9 4 5
9 10 5 6
10 11 6 7
11 12 7 8
12 14 8 9
14 15 9 10
15 16 10 11
16 17 11 12
16 19 11 13
19 21 13 14
21 24 14 15
24 25 15 16
25 26 16 17
26 27 17 18
29 30 18 19
30 32 19 20
32 33 20 21
33 35 21 22
35 36 22 23
36 37 23 24
37 38 24 25
38 39 25 26
39 41 26 27
41 42 27 28
42 43 28 29
43 44 29 30
44 46 30 31
46 47 31 32
46 51 31 35
47 48 32 33
48 49 33 34
51 52 35 36
52 53 36 37
53 54 37 38
54 55 38 39
54 57 38 40
57 58 40 41
58 60 41 42
60 61 42 43


>  <atomInfo>  (1) 
1  -0.0627736C 
2  -0.0471324C 
3  -0.0627736C 
4  -0.0509643C 
5  -0.0527983C 
6  -0.0504266C 
7  -0.0411602C 
8  -0.0622342C 
9  -0.0357295C 
10 -0.0493687C 
11 -0.0467648C 
12 -0.0235288C 
13 -0.0588300C 
14 -0.0252970C 
15 0.01894250C 
16 0.21168386C 
17 -0.0668437N 
18 -0.4319026NA
19 0.05299393C 
20 -0.0531029C 
21 0.08214351C 
22 0.02894891C 
23 -0.0346421C 
24 -0.3739771OA
25 0.04992311C 
26 -0.0003836C 
27 0.08903261C 
28 -0.3666772OA
29 0.11013145C 
30 0.08518530C 
31 -0.3902146OA
32 0.00187436C 
33 0.05654659C 
34 -0.3930274OA
35 -0.0269067C 
36 -0.0508358C 
37 -0.0529572C 
38 -0.0506992C 
39 -0.0440062C 
40 -0.0624993C 
41 -0.0475781C 
42 -0.0380143C 
43 -0.0463905C 
44 -0.0292275C 
45 -0.0311067C 
46 0.00496901C 
47 -0.0444689C 
48 -0.0523745C 
49 -0.0498749C 
50 -0.0351919C 
51 0.05364141C 
52 -0.3742671OA
53 0.09076485C 
54 0.01133087C 
55 -0.0406678C 
56 -0.0344871C 
57 -0.0256059C 
58 -0.0339588C 
59 -0.0314705C 
60 -0.0470153C 
61 -0.0414029C 
62 -0.0622441C 


$$$$
