
     RDKit          3D

 42 44  0  0  0  0  0  0  0  0999 V2000
   -1.8613   -2.3711    0.8989 C   0  0  0  0  0  0  0  0  0  0  0  0
   -1.0564   -3.4099    0.1854 C   0  0  1  0  0  0  0  0  0  0  0  0
   -0.9235   -4.6934    0.9740 C   0  0  0  0  0  0  0  0  0  0  0  0
   -1.4582   -3.6335   -1.2329 C   0  0  0  0  0  0  0  0  0  0  0  0
   -2.9304   -3.6169   -1.4764 C   0  0  0  0  0  0  0  0  0  0  0  0
   -3.7071   -2.7457   -0.5495 C   0  0  0  0  0  0  0  0  0  0  0  0
   -4.2595   -1.5071   -1.1559 C   0  0  1  0  0  0  0  0  0  0  0  0
   -3.3282   -0.7014   -1.9829 C   0  0  0  0  0  0  0  0  0  0  0  0
   -5.6598   -1.6032   -1.6583 C   0  0  0  0  0  3  0  0  0  0  0  0
   -6.5983   -1.3651   -0.4851 C   0  0  0  0  0  0  0  0  0  0  0  0
   -5.8235   -0.9534    0.7511 C   0  0  0  0  0  0  0  0  0  0  0  0
   -4.8881    0.1603    0.4117 C   0  0  2  0  0  0  0  0  0  0  0  0
   -3.5644    0.1134    1.0763 C   0  0  0  0  0  0  0  0  0  0  0  0
   -5.5210    1.5034    0.2904 C   0  0  0  0  0  0  0  0  0  0  0  0
   -5.9666    2.1128    1.5766 C   0  0  2  0  0  0  0  0  0  0  0  0
   -7.0856    3.0052    1.2709 N   0  0  0  0  0  1  0  0  0  0  0  0
   -4.8870    2.8706    2.3002 C   0  0  0  0  0  0  0  0  0  0  0  0
   -4.2262    3.9251    1.4722 C   0  0  0  0  0  0  0  0  0  0  0  0
   -4.0187    3.5519    0.0413 C   0  0  1  0  0  0  0  0  0  0  0  0
   -3.9694    4.6466   -0.8099 O   0  0  0  0  0  0  0  0  0  0  0  0
   -2.8878    2.5888   -0.1856 C   0  0  0  0  0  0  0  0  0  0  0  0
   -3.2088    1.7440   -1.4155 C   0  0  0  0  0  0  0  0  0  0  0  0
   -2.5952    0.3834   -1.2366 C   0  0  2  0  0  0  0  0  0  0  0  0
   -1.3136    0.4594   -1.8395 O   0  0  0  0  0  0  0  0  0  0  0  0
   -2.3772    0.0886    0.2028 C   0  0  2  0  0  0  0  0  0  0  0  0
   -1.4352   -1.0317    0.4423 C   0  0  0  0  0  0  0  0  0  0  0  0
   -0.1542   -0.7911    0.2263 C   0  0  0  0  0  0  0  0  0  0  0  0
    0.8338   -1.8758    0.4471 C   0  0  0  0  0  0  0  0  0  0  0  0
    2.0519   -1.4437    1.6920 S   0  0  0  0  0  0  0  0  0  0  0  0
    3.0691   -0.0856    1.1035 C   0  0  0  0  0  0  0  0  0  0  0  0
    3.8879   -0.5570   -0.0691 C   0  0  2  0  0  0  0  0  0  0  0  0
    2.9696   -1.0232   -1.1873 C   0  0  0  0  0  0  0  0  0  0  0  0
    4.8712   -1.9850    0.4448 S   0  0  0  0  0  0  0  0  0  0  0  0
    6.0695   -1.4174    1.6811 C   0  0  0  0  0  0  0  0  0  0  0  0
    7.0210   -0.4861    1.0269 C   0  0  0  0  0  0  0  0  0  0  0  0
    6.4923    0.7745    0.3879 C   0  0  0  0  0  0  0  0  0  0  0  0
    8.3239   -0.7284    0.9862 C   0  0  0  0  0  0  0  0  0  0  0  0
    9.4279    0.4305    0.1830 S   0  0  0  0  0  0  0  0  0  0  0  0
    8.9505    2.0830    0.6941 C   0  0  0  0  0  0  0  0  0  0  0  0
    9.7870    3.1245    0.1006 C   0  0  0  0  0  0  0  0  0  0  0  0
   10.7934    2.9221   -0.7249 C   0  0  0  0  0  0  0  0  0  0  0  0
   11.1563    1.5375   -1.1234 C   0  0  0  0  0  0  0  0  0  0  0  0
  1  2  1  0
  2  3  1  1
  2  4  1  0
  4  5  1  0
  5  6  1  0
  7  6  1  6
  7  8  1  0
  7  9  1  0
  9 10  1  0
 10 11  1  0
 12 11  1  1
 12 13  1  0
 12 14  1  0
 14 15  1  0
 15 16  1  6
 15 17  1  0
 17 18  1  0
 18 19  1  0
 19 20  1  6
 19 21  1  0
 21 22  1  0
 22 23  1  0
 23 24  1  6
 23 25  1  0
 25 26  1  0
 26 27  2  3
 27 28  1  0
 28 29  1  0
 29 30  1  0
 30 31  1  0
 31 32  1  6
 31 33  1  0
 33 34  1  0
 34 35  1  0
 35 36  1  0
 35 37  2  3
 37 38  1  0
 38 39  1  0
 39 40  1  0
 40 41  2  3
 41 42  1  0
 26  1  1  0
 23  8  1  0
 25 13  1  6
M  CHG  1  16   1
M  RAD  2   9   2  16   2
M  END
>  <fragInfo>  (1) 
1 2 3 4 5 6 7 8 9 10 11 12 13 14 15 16 17 18 19 20 21 22 23 24 25 26 27
28
29
30
31 32
33
34
35 36 37
38
39
40 41 42


>  <torsionInfo>  (1) 
27 28 0 1
28 29 1 2
29 30 2 3
30 31 3 4
31 33 4 5
33 34 5 6
34 35 6 7
37 38 7 8
38 39 8 9
39 40 9 10


>  <atomInfo>  (1) 
1  -0.0290258C 
2  -0.0405335C 
3  -0.0622031C 
4  -0.0503950C 
5  -0.0527650C 
6  -0.0500557C 
7  -0.0355560C 
8  -0.0204302C 
9  -0.0353586C 
10 -0.0496377C 
11 -0.0498970C 
12 -0.0343520C 
13 -0.0408314C 
14 0.02129156C 
15 0.27691733C 
16 0.42156777N 
17 0.02089402C 
18 -0.0206151C 
19 0.05433481C 
20 -0.3931250OA
21 -0.0242490C 
22 -0.0210884C 
23 0.07160979C 
24 -0.3892555OA
25 0.00893192C 
26 -0.0671361C 
27 -0.0749939C 
28 0.01159969C 
29 -0.1567000SA
30 0.00525740C 
31 0.01127089C 
32 -0.0524925C 
33 -0.1535526SA
34 0.01512028C 
35 -0.0570782C 
36 -0.0422822C 
37 -0.0291407C 
38 -0.1300029SA
39 0.01543296C 
40 -0.0785510C 
41 -0.0908258C 
42 -0.0469614C 


$$$$
