
     RDKit          3D

 26 26  0  0  0  0  0  0  0  0999 V2000
   -3.0746    2.6445   -1.9167 C   0  0  0  0  0  0  0  0  0  0  0  0
   -2.8357    1.1692   -1.7869 C   0  0  0  0  0  3  0  0  0  0  0  0
   -2.7337    0.7386   -0.3416 C   0  0  1  0  0  0  0  0  0  0  0  0
   -4.0003    1.0532    0.4347 C   0  0  2  0  0  0  0  0  0  0  0  0
   -3.6333    1.9125    1.4661 O   0  0  0  0  0  0  0  0  0  0  0  0
   -4.5990   -0.1910    1.0553 C   0  0  0  0  0  0  0  0  0  0  0  0
   -5.1667   -1.0099    0.0997 O   0  0  0  0  0  0  0  0  0  0  0  0
   -4.4135   -2.0356   -0.2261 O   0  0  0  0  0  0  0  0  0  0  0  0
   -3.4175   -1.5163   -1.0861 C   0  0  1  0  0  0  0  0  0  0  0  0
   -4.0895   -0.7096   -1.9945 O   0  0  0  0  0  0  0  0  0  0  0  0
   -2.4813   -0.7239   -0.2075 C   0  0  1  0  0  0  0  0  0  0  0  0
   -1.1289   -1.1391   -0.3904 N   0  0  0  0  0  0  0  0  0  0  0  0
   -0.6062   -0.8713   -1.7084 C   0  0  0  0  0  3  0  0  0  0  0  0
    0.2693    0.3654   -1.5884 C   0  0  2  0  0  0  0  0  0  0  0  0
    0.8858    0.7417   -2.9192 C   0  0  0  0  0  0  0  0  0  0  0  0
    1.2863    0.0714   -0.6886 O   0  0  0  0  0  0  0  0  0  0  0  0
    0.7809   -0.2593    0.5588 C   0  0  0  0  0  0  0  0  0  0  0  0
    1.9536   -0.5620    1.4649 C   0  0  1  0  0  0  0  0  0  0  0  0
    2.6508   -1.6278    0.9002 O   0  0  0  0  0  0  0  0  0  0  0  0
    2.8022    0.6869    1.5425 C   0  0  2  0  0  0  0  0  0  0  0  0
    3.2504    1.1316    0.3190 O   0  0  0  0  0  0  0  0  0  0  0  0
    3.8741    0.6357    2.5774 C   0  0  0  0  0  3  0  0  0  0  0  0
    4.8141   -0.4928    2.3081 C   0  0  0  0  0  0  0  0  0  0  0  0
    5.4533   -0.2936    0.9500 C   0  0  0  0  0  3  0  0  0  0  0  0
    6.6321    0.4424    1.0369 O   0  0  0  0  0  0  0  0  0  0  0  0
    7.5274    0.0784    0.1410 O   0  0  0  0  0  0  0  0  0  0  0  0
  1  2  1  0
  3  2  1  6
  3  4  1  0
  4  5  1  1
  4  6  1  0
  6  7  1  0
  7  8  1  0
  8  9  1  0
  9 10  1  6
  9 11  1  0
 11 12  1  6
 12 13  1  0
 13 14  1  0
 14 15  1  6
 14 16  1  0
 16 17  1  0
 17 18  1  0
 18 19  1  6
 18 20  1  0
 20 21  1  6
 20 22  1  0
 22 23  1  0
 23 24  1  0
 24 25  1  0
 25 26  1  0
 11  3  1  0
M  RAD  4   2   2  13   2  22   2  24   2
M  END
>  <fragInfo>  (1) 
3 4 5 6 7 8 9 10 11
1 2
12
13
14 15
16
17
18 19
20 21
22
23
24
25 26


>  <torsionInfo>  (1) 
2 3 1 0
11 12 0 2
12 13 2 3
13 14 3 4
14 16 4 5
16 17 5 6
17 18 6 7
18 20 7 8
20 22 8 9
22 23 9 10
23 24 10 11
24 25 11 12


>  <atomInfo>  (1) 
1  -0.0618167C 
2  -0.0341821C 
3  0.01045200C 
4  0.08525701C 
5  -0.3902309OA
6  0.10856624C 
7  -0.2312293OA
8  -0.2028724OA
9  0.20412646C 
10 -0.3644112OA
11 0.06716385C 
12 -0.3021535NA
13 0.05126757C 
14 0.07171537C 
15 -0.0370672C 
16 -0.3740328OA
17 0.07556858C 
18 0.10343464C 
19 -0.3880026OA
20 0.08541150C 
21 -0.3900344OA
22 -0.0044318C 
23 -0.0150479C 
24 0.12230025C 
25 -0.2332098OA
26 -0.2514394OA


$$$$
