
     RDKit          3D

 23 24  0  0  0  0  0  0  0  0999 V2000
   -2.5306    0.3357   -3.6958 O   0  0  0  0  0  0  0  0  0  0  0  0
   -3.2077   -0.4488   -2.9896 C   0  0  0  0  0  0  0  0  0  0  0  0
   -4.4383   -0.8562   -3.5620 O   0  0  0  0  0  0  0  0  0  0  0  0
   -2.8482   -0.9610   -1.6629 C   0  0  0  0  0  0  0  0  0  0  0  0
   -2.4997   -0.0002   -0.6609 C   0  0  0  0  0  0  0  0  0  0  0  0
   -1.3423    0.0745    0.0277 C   0  0  0  0  0  0  0  0  0  0  0  0
   -0.3497   -0.9362   -0.2983 C   0  0  0  0  0  0  0  0  0  0  0  0
    0.0668   -1.2741   -1.9956 Cl  0  0  0  0  0  0  0  0  0  0  0  0
    0.2809   -1.6454    0.5911 C   0  0  0  0  0  0  0  0  0  0  0  0
    1.4574   -2.0981    0.3110 C   0  0  0  0  0  0  0  0  0  0  0  0
    2.3405   -1.4340   -0.6350 C   0  0  0  0  0  0  0  0  0  0  0  0
    3.2222   -0.5178   -0.1935 C   0  0  0  0  0  0  0  0  0  0  0  0
    4.2698    0.4287   -0.4622 C   0  0  0  0  0  0  0  0  0  0  0  0
    4.3262    0.7423    0.8179 C   0  0  0  0  0  0  0  0  0  0  0  0
    5.2476    1.7596    1.4666 C   0  0  0  0  0  0  0  0  0  0  0  0
    3.3038   -0.1893    1.2524 C   0  0  1  0  0  0  0  0  0  0  0  0
    2.0219    0.2816    1.7534 C   0  0  0  0  0  0  0  0  0  0  0  0
    1.2466    1.0687    1.0152 C   0  0  0  0  0  0  0  0  0  0  0  0
   -0.0316    1.5575    1.4605 C   0  0  0  0  0  0  0  0  0  0  0  0
   -1.1948    1.1239    1.0309 C   0  0  0  0  0  0  0  0  0  0  0  0
   -2.4862    1.6891    1.5699 C   0  0  0  0  0  0  0  0  0  0  0  0
   -3.2902    0.5758    2.1989 C   0  0  0  0  0  0  0  0  0  0  0  0
   -3.5643    0.7239    3.4909 C   0  0  0  0  0  0  0  0  0  0  0  0
  1  2  2  0
  2  3  1  0
  2  4  1  0
  4  5  1  0
  5  6  2  3
  6  7  1  0
  7  8  1  0
  7  9  2  0
  9 10  2  0
 10 11  1  0
 11 12  2  3
 12 13  1  0
 13 14  2  0
 14 15  1  0
 16 14  1  6
 16 17  1  0
 17 18  2  3
 18 19  1  0
 19 20  2  3
 20 21  1  0
 21 22  1  0
 22 23  2  0
 20  6  1  0
 16 12  1  0
M  END
>  <fragInfo>  (1) 
5 6 7 8 9 10 11 12 13 14 15 16 17 18 19 20
1 2 3
4
21
22 23


>  <torsionInfo>  (1) 
4 5 2 0
20 21 0 3
2 4 1 2
21 22 3 4


>  <atomInfo>  (1) 
1  -0.2521097OA
2  0.30672256C 
3  -0.4810018OA
4  0.06440885C 
5  -0.0638225C 
6  0.00104815C 
7  0.08963129C 
8  -0.0744596Cl
9  -0.0999230C 
10 -0.0180915C 
11 -0.0503150C 
12 -0.0364373C 
13 -0.0582331C 
14 -0.0617004C 
15 -0.0426786C 
16 0.02315741C 
17 -0.0729691C 
18 -0.0650321C 
19 -0.0583505C 
20 -0.0351824C 
21 -0.0093539C 
22 -0.0873270C 
23 -0.1027483C 


$$$$
