
     RDKit          3D

 17 16  0  0  0  0  0  0  0  0999 V2000
    6.1531   -0.0146   -1.3637 C   0  0  0  0  0  0  0  0  0  0  0  0
    5.9942    0.4616    0.0678 C   0  0  0  0  0  0  0  0  0  0  0  0
    5.5937   -0.6908    0.9553 C   0  0  0  0  0  0  0  0  0  0  0  0
    4.2969   -1.2475    0.4998 C   0  0  0  0  0  0  0  0  0  0  0  0
    3.1453   -0.3267    0.5403 C   0  0  0  0  0  0  0  0  0  0  0  0
    3.2071    0.8590    0.8943 O   0  0  0  0  0  0  0  0  0  0  0  0
    1.8753   -0.8468    0.1469 N   0  0  0  0  0  0  0  0  0  0  0  0
    0.7021    0.0103    0.1997 C   0  0  0  0  0  3  0  0  0  0  0  0
   -0.5750   -0.8055    0.0055 C   0  0  0  0  0  0  0  0  0  0  0  0
   -1.7308    0.0105    0.3710 C   0  0  0  0  0  0  0  0  0  0  0  0
   -1.5932    1.2165    0.6610 O   0  0  0  0  0  0  0  0  0  0  0  0
   -3.0619   -0.5560    0.4190 N   0  0  0  0  0  0  0  0  0  0  0  0
   -4.1923    0.1815    0.7964 C   0  0  0  0  0  0  0  0  0  0  0  0
   -5.2806    0.4390    0.1574 C   0  0  0  0  0  0  0  0  0  0  0  0
   -5.5905   -0.0190   -1.1807 C   0  0  0  0  0  0  0  0  0  0  0  0
   -4.5959   -0.9039   -1.8164 C   0  0  0  0  0  0  0  0  0  0  0  0
   -4.3473   -1.9854   -1.3537 O   0  0  0  0  0  0  0  0  0  0  0  0
  1  2  1  0
  2  3  1  0
  3  4  1  0
  4  5  1  0
  5  6  2  0
  5  7  1  0
  7  8  1  0
  8  9  1  0
  9 10  1  0
 10 11  2  0
 10 12  1  0
 12 13  1  0
 13 14  2  3
 14 15  1  0
 15 16  1  0
 16 17  2  0
M  RAD  1   8   2
M  END
>  <fragInfo>  (1) 
5 6 7
1 2
3
4
8
9
10 11 12
13 14
15
16 17


>  <torsionInfo>  (1) 
4 5 3 0
7 8 0 4
2 3 1 2
3 4 2 3
8 9 4 5
9 10 5 6
12 13 6 7
14 15 7 8
15 16 8 9


>  <atomInfo>  (1) 
1  -0.0653680C 
2  -0.0556781C 
3  -0.0447586C 
4  0.02646463C 
5  0.21979499C 
6  -0.2751338OA
7  -0.3507676N 
8  0.05829339C 
9  0.04915961C 
10 0.22554607C 
11 -0.2746850OA
12 -0.3329179N 
13 0.00014578C 
14 -0.0612575C 
15 0.02282950C 
16 0.12330940C 
17 -0.3030514OA


$$$$
