
     RDKit          3D

 35 40  0  0  0  0  0  0  0  0999 V2000
   -2.9175   -0.0973   -0.6098 C   0  0  0  0  0  0  0  0  0  0  0  0
   -2.9530   -1.5057   -1.0716 O   0  0  0  0  0  0  0  0  0  0  0  0
   -1.6199   -2.0527   -1.0346 C   0  0  0  0  0  0  0  0  0  0  0  0
   -1.0974   -2.8221   -1.9844 C   0  0  0  0  0  0  0  0  0  0  0  0
    0.2754   -3.2183   -1.8565 C   0  0  0  0  0  0  0  0  0  0  0  0
    0.9030   -2.7422   -0.7547 C   0  0  0  0  0  0  0  0  0  0  0  0
    0.4189   -1.9386    0.2741 C   0  0  0  0  0  0  0  0  0  0  0  0
   -0.9005   -1.6386    0.0773 C   0  0  0  0  0  0  0  0  0  0  0  0
   -2.0084   -1.1343    1.4896 S   0  0  0  0  0  0  0  0  0  0  0  0
   -0.9202   -0.1743    2.5112 C   0  0  2  0  0  0  0  0  0  0  0  0
   -1.5115    1.1213    2.7130 C   0  0  0  0  0  0  0  0  0  0  0  0
   -2.6319    1.6692    2.6139 C   0  0  0  0  0  0  0  0  0  0  0  0
   -3.9396    1.4354    2.2779 C   0  0  0  0  0  0  0  0  0  0  0  0
   -4.4962    0.8231    1.2007 C   0  0  0  0  0  0  0  0  0  0  0  0
   -5.9857    0.7846    1.2277 C   0  0  0  0  0  0  0  0  0  0  0  0
   -3.6713    0.3003    0.2399 C   0  0  0  0  0  0  0  0  0  0  0  0
    0.3649   -0.3408    2.0758 N   0  0  0  0  0  0  0  0  0  0  0  0
    1.0422   -1.2139    1.3260 C   0  0  0  0  0  0  0  0  0  0  0  0
    2.4891   -0.8862    1.6500 C   0  0  0  0  0  0  0  0  0  0  0  0
    3.3680   -0.4155    0.8720 C   0  0  0  0  0  0  0  0  0  0  0  0
    5.0709    0.1807    0.5860 S   0  0  2  0  0  0  0  0  0  0  0  0
    5.0021    1.7405    0.6803 C   0  0  0  0  0  0  0  0  0  0  0  0
    3.7988    2.3431    1.3715 C   0  0  0  0  0  0  0  0  0  0  0  0
    2.6018    2.9916    0.1787 S   0  0  0  0  0  0  0  0  0  0  0  0
    1.1346    2.0950    0.1361 C   0  0  0  0  0  0  0  0  0  0  0  0
    0.0780    2.3079   -0.6818 C   0  0  0  0  0  0  0  0  0  0  0  0
   -1.0259    1.4299   -0.5427 C   0  0  0  0  0  0  0  0  0  0  0  0
   -1.8606    0.7528   -1.2835 C   0  0  0  0  0  0  0  0  0  0  0  0
   -1.7613    0.8429   -2.7537 C   0  0  0  0  0  0  0  0  0  0  0  0
   -0.4772    0.4094   -3.3557 C   0  0  0  0  0  0  0  0  0  0  0  0
    0.5364    0.1207   -2.3858 C   0  0  0  0  0  0  0  0  0  0  0  0
    1.8265    0.0981   -2.5210 C   0  0  0  0  0  0  0  0  0  0  0  0
    2.7637   -0.1802   -1.5784 C   0  0  0  0  0  0  0  0  0  0  0  0
    3.2898   -0.3515   -0.5496 C   0  0  0  0  0  0  0  0  0  0  0  0
    4.8138   -0.7344   -0.5378 C   0  0  0  0  0  0  0  0  0  0  0  0
  1  2  1  0
  2  3  1  0
  3  4  1  0
  4  5  2  0
  5  6  1  0
  6  7  2  0
  7  8  1  0
  8  9  1  0
  9 10  1  0
 10 11  1  0
 11 12  2  3
 12 13  1  0
 13 14  2  3
 14 15  1  0
 14 16  1  0
 10 17  1  6
 17 18  2  0
 18 19  1  0
 19 20  2  3
 20 21  1  0
 21 22  1  6
 22 23  1  0
 23 24  1  0
 24 25  1  0
 25 26  2  3
 26 27  1  0
 27 28  2  3
 28 29  1  0
 29 30  1  0
 30 31  1  0
 31 32  2  3
 32 33  1  0
 33 34  2  3
 34 35  1  0
  1 16  2  3
 28  1  1  0
  8  3  2  0
 18  7  1  0
 34 20  1  0
 35 21  1  0
M  END
>  <fragInfo>  (1) 
1 2 3 4 5 6 7 8 9 10 11 12 13 14 15 16 17 18 19 20 21 22 23 24 25 26 27 28 29 30 31 32 33 34 35


>  <torsionInfo>  (1) 


>  <atomInfo>  (1) 
1  0.13045115C 
2  -0.4558727OA
3  0.14126952A 
4  -0.0180820A 
5  -0.0578051A 
6  -0.0514214A 
7  0.01723746A 
8  0.06180491A 
9  -0.0902038SA
10 0.11903983C 
11 -0.0497291C 
12 -0.0630273C 
13 -0.0593991C 
14 -0.0474325C 
15 -0.0396372C 
16 -0.0160859C 
17 -0.2659218NA
18 0.06873519C 
19 -0.0238957C 
20 -0.0060321C 
21 -0.2215347S 
22 -0.0116682C 
23 0.00514225C 
24 -0.1333326SA
25 -0.0291744C 
26 -0.0555264C 
27 -0.0548073C 
28 -0.0049020C 
29 -0.0207128C 
30 -0.0305566C 
31 -0.0841936C 
32 -0.0659219C 
33 -0.0575174C 
34 -0.0275261C 
35 0.00492448C 


$$$$
