
     RDKit          3D

 29 30  0  0  0  0  0  0  0  0999 V2000
   -1.5774    1.8565   -1.7389 C   0  0  0  0  0  0  0  0  0  0  0  0
   -2.4168    1.5724   -0.5316 C   0  0  1  0  0  0  0  0  0  0  0  0
   -3.8547    1.8605   -0.8333 C   0  0  0  0  0  0  0  0  0  0  0  0
   -4.7993    1.5429    0.2817 C   0  0  2  0  0  0  0  0  0  0  0  0
   -5.3718    2.6512    0.8762 O   0  0  0  0  0  0  0  0  0  0  0  0
   -4.2219    0.6004    1.3132 C   0  0  2  0  0  0  0  0  0  0  0  0
   -3.2986    1.3553    2.0554 O   0  0  0  0  0  0  0  0  0  0  0  0
   -3.4409   -0.4469    0.5245 C   0  0  1  0  0  0  0  0  0  0  0  0
   -4.1433   -0.7224   -0.6600 O   0  0  0  0  0  0  0  0  0  0  0  0
   -2.1662    0.2507    0.1055 C   0  0  1  0  0  0  0  0  0  0  0  0
   -1.2558   -0.6040   -0.6025 N   0  0  0  0  0  0  0  0  0  0  0  0
   -0.2302   -1.0068    0.3342 C   0  0  1  0  0  0  0  0  0  0  0  0
   -0.1879   -2.4822    0.5852 C   0  0  1  0  0  0  0  0  0  0  0  0
   -1.5869   -2.9422    0.9217 C   0  0  0  0  0  0  0  0  0  0  0  0
    0.3404   -3.2180   -0.4588 O   0  0  0  0  0  0  0  0  0  0  0  0
    1.5806   -2.7116   -0.8132 C   0  0  1  0  0  0  0  0  0  0  0  0
    2.5124   -3.6880   -1.1074 O   0  0  0  0  0  0  0  0  0  0  0  0
    1.3883   -1.7419   -1.9731 C   0  0  1  0  0  0  0  0  0  0  0  0
    0.1888   -2.0735   -2.6099 O   0  0  0  0  0  0  0  0  0  0  0  0
    1.2598   -0.3123   -1.4612 C   0  0  2  0  0  0  0  0  0  0  0  0
    2.4369    0.3919   -1.7550 O   0  0  0  0  0  0  0  0  0  0  0  0
    1.1080   -0.3931    0.0533 C   0  0  1  0  0  0  0  0  0  0  0  0
    1.0816    0.9252    0.5285 O   0  0  0  0  0  0  0  0  0  0  0  0
    2.0507    1.0748    1.4140 O   0  0  0  0  0  0  0  0  0  0  0  0
    3.2393    1.4824    0.8169 C   0  0  0  0  0  3  0  0  0  0  0  0
    4.3380    0.4510    0.9624 C   0  0  0  0  0  3  0  0  0  0  0  0
    5.5816    1.0520    0.8577 O   0  0  0  0  0  0  0  0  0  0  0  0
    5.4895    2.4442    0.7145 C   0  0  0  0  0  3  0  0  0  0  0  0
    5.9556    2.8312   -0.6625 C   0  0  0  0  0  2  0  0  0  0  0  0
  2  1  1  6
  2  3  1  0
  3  4  1  0
  4  5  1  1
  4  6  1  0
  6  7  1  1
  6  8  1  0
  8  9  1  6
  8 10  1  0
 10 11  1  6
 12 11  1  6
 12 13  1  0
 13 14  1  6
 13 15  1  0
 15 16  1  0
 16 17  1  6
 16 18  1  0
 18 19  1  1
 18 20  1  0
 20 21  1  1
 20 22  1  0
 22 23  1  1
 23 24  1  0
 24 25  1  0
 25 26  1  0
 26 27  1  0
 27 28  1  0
 28 29  1  0
 10  2  1  0
 22 12  1  0
M  RAD  4  25   2  26   2  28   2  29   3
M  END
>  <fragInfo>  (1) 
12 13 14 15 16 17 18 19 20 21 22
1 2 3 4 5 6 7 8 9 10
11
23
24
25
26
27
28 29


>  <torsionInfo>  (1) 
11 12 2 0
22 23 0 3
10 11 1 2
23 24 3 4
24 25 4 5
25 26 5 6
26 27 6 7
27 28 7 8


>  <atomInfo>  (1) 
1  -0.0608233C 
2  -0.0236262C 
3  -0.0201755C 
4  0.08280077C 
5  -0.3903155OA
6  0.10722524C 
7  -0.3876533OA
8  0.09793143C 
9  -0.3886791OA
10 0.03852322C 
11 -0.3033680NA
12 0.06576461C 
13 0.07602304C 
14 -0.0369004C 
15 -0.3453499OA
16 0.18338355C 
17 -0.3657336OA
18 0.13314476C 
19 -0.3849910OA
20 0.11579754C 
21 -0.3872957OA
22 0.13920444C 
23 -0.2282602OA
24 -0.2270388OA
25 0.15354315C 
26 0.11904741C 
27 -0.3661812OA
28 0.08814395C 
29 -0.0008258C 


$$$$
