
     RDKit          3D

 61 65  0  0  0  0  0  0  0  0999 V2000
   -9.6161   -1.0285    1.3762 O   0  0  0  0  0  0  0  0  0  0  0  0
   -8.5070   -1.3218    0.7892 C   0  0  0  0  0  0  0  0  0  0  0  0
   -8.1565   -1.2792   -0.5438 C   0  0  0  0  0  0  0  0  0  0  0  0
   -8.5921   -0.6573   -1.7801 C   0  0  0  0  0  0  0  0  0  0  0  0
   -8.1167   -0.7491   -2.8825 C   0  0  0  0  0  0  0  0  0  0  0  0
   -6.9438   -1.5363   -3.2006 C   0  0  0  0  0  0  0  0  0  0  0  0
   -6.4501   -2.1605   -2.0800 C   0  0  0  0  0  0  0  0  0  0  0  0
   -6.9902   -2.0672   -0.7939 C   0  0  0  0  0  0  0  0  0  0  0  0
   -6.6354   -2.6106    0.5338 C   0  0  0  0  0  0  0  0  0  0  0  0
   -5.8696   -3.6499    0.5878 O   0  0  0  0  0  0  0  0  0  0  0  0
   -7.2660   -1.8184    1.5660 C   0  0  0  0  0  0  0  0  0  0  0  0
   -6.4847   -0.3943    1.7529 C   0  0  1  0  0  0  0  0  0  0  0  0
   -7.4139    0.3408    2.3617 N   0  0  0  0  0  0  0  0  0  0  0  0
   -7.9683    0.9379    3.3130 C   0  0  0  0  0  0  0  0  0  0  0  0
   -6.9900    0.6933    4.6063 C   0  0  2  0  0  0  0  0  0  0  0  0
   -5.9835    1.6134    4.3218 O   0  0  0  0  0  0  0  0  0  0  0  0
   -6.5022   -0.6267    4.5466 N   0  0  0  0  0  0  0  0  0  0  0  0
   -5.3538   -0.8188    3.1711 S   0  0  0  0  0  0  0  0  0  0  0  0
   -5.0720   -2.4249    3.1232 C   0  0  0  0  0  0  0  0  0  0  0  0
   -5.9346   -0.0463    0.5587 C   0  0  0  0  0  0  0  0  0  0  0  0
   -5.3856    0.3898   -0.4787 C   0  0  0  0  0  0  0  0  0  0  0  0
   -4.2401    0.6026   -1.0988 C   0  0  0  0  0  0  0  0  0  0  0  0
   -4.0751    1.1894   -2.3887 C   0  0  0  0  0  0  0  0  0  0  0  0
   -2.7747    1.2082   -2.8766 C   0  0  0  0  0  0  0  0  0  0  0  0
   -1.7764    0.5854   -1.9659 C   0  0  0  0  0  0  0  0  0  0  0  0
   -0.5399    0.4833   -2.3137 C   0  0  0  0  0  0  0  0  0  0  0  0
    0.4317   -0.1684   -1.2557 C   0  0  2  0  0  0  0  0  0  0  0  0
   -0.2789    0.3842    0.0770 C   0  0  1  0  0  0  0  0  0  0  0  0
    0.4153   -0.0276    1.1515 O   0  0  0  0  0  0  0  0  0  0  0  0
   -0.4658    1.8366   -0.1336 C   0  0  0  0  0  0  0  0  0  0  0  0
   -1.1443    2.5013    0.9795 C   0  0  0  0  0  0  0  0  0  0  0  0
   -1.4228    3.6977    0.9469 O   0  0  0  0  0  0  0  0  0  0  0  0
    1.6042    0.7331   -1.3448 C   0  0  0  0  0  0  0  0  0  0  0  0
    2.0707    1.3918   -1.9840 C   0  0  0  0  0  0  0  0  0  0  0  0
    3.0247    2.4979   -2.8136 C   0  0  0  0  0  0  0  0  0  0  0  0
    2.0986    2.3518   -4.0270 C   0  0  0  0  0  0  0  0  0  0  0  0
    1.1600    1.8335   -4.4509 C   0  0  0  0  0  0  0  0  0  0  0  0
    3.6494    0.8469   -1.2917 C   0  0  0  0  0  0  0  0  0  0  0  0
    4.2412    1.9573   -0.7682 O   0  0  0  0  0  0  0  0  0  0  0  0
    5.3109    1.0525    0.0777 C   0  0  1  0  0  0  0  0  0  0  0  0
    4.2427    0.5308    0.9053 C   0  0  0  0  0  0  0  0  0  0  0  0
    3.8747   -0.6989    1.0344 C   0  0  0  0  0  0  0  0  0  0  0  0
    4.6401   -1.6977    0.2695 C   0  0  1  0  0  0  0  0  0  0  0  0
    5.2388   -1.1547   -1.0635 C   0  0  0  0  0  0  0  0  0  0  0  0
    5.5531    0.1101   -1.1164 C   0  0  0  0  0  0  0  0  0  0  0  0
    6.2302    0.8046   -2.2827 C   0  0  1  0  0  0  0  0  0  0  0  0
    7.2911    2.0700   -1.6099 S   0  0  0  0  0  0  0  0  0  0  0  0
    8.8794    2.1572   -2.4920 C   0  0  0  0  0  0  0  0  0  0  0  0
    8.9131    1.2335   -3.4934 C   0  0  0  0  0  0  0  0  0  0  0  0
    7.9920    0.3431   -3.8730 C   0  0  0  0  0  0  0  0  0  0  0  0
    6.7245    0.0743   -3.3752 C   0  0  0  0  0  0  0  0  0  0  0  0
    6.0784   -0.9688   -4.2215 C   0  0  0  0  0  0  0  0  0  0  0  0
    5.7414   -2.1272   -3.5652 O   0  0  0  0  0  1  0  0  0  0  0  0
    5.9468   -1.7723    0.9703 N   0  0  0  0  0  4  0  0  0  0  0  0
    7.0949   -1.8319    1.5679 C   0  0  0  0  0  0  0  0  0  0  0  0
    8.3224   -1.9105    2.2184 C   0  0  0  0  0  0  0  0  0  0  0  0
    8.2566   -1.0939    3.4911 N   0  0  0  0  0  2  0  0  0  0  0  0
    7.0687    0.1979    3.3377 S   0  0  0  0  0  0  0  0  0  0  0  0
    6.2253    0.4190    4.9511 C   0  0  0  0  0  0  0  0  0  0  0  0
    7.2004    0.9273    5.9288 C   0  0  0  0  0  0  0  0  0  0  0  0
    7.4288    0.2297    7.0501 C   0  0  0  0  0  0  0  0  0  0  0  0
  1  2  2  0
  2  3  1  0
  3  4  2  0
  4  5  1  0
  5  6  2  0
  6  7  1  0
  7  8  2  0
  8  9  1  0
  9 10  2  0
  9 11  1  0
 11 12  1  0
 12 13  1  0
 13 14  2  0
 14 15  1  0
 15 16  1  6
 15 17  1  0
 18 17  1  1
 18 19  2  0
 12 20  1  6
 20 21  1  0
 21 22  2  3
 22 23  1  0
 23 24  2  3
 24 25  1  0
 25 26  2  3
 27 26  1  6
 27 28  1  0
 28 29  1  1
 28 30  1  0
 30 31  1  0
 31 32  2  0
 27 33  1  0
 33 34  2  3
 34 35  1  0
 35 36  2  3
 36 37  1  0
 34 38  1  0
 38 39  1  0
 40 39  1  6
 40 41  1  0
 41 42  2  0
 42 43  1  0
 43 44  1  0
 44 45  2  0
 46 45  1  1
 46 47  1  0
 47 48  1  0
 48 49  2  0
 49 50  1  0
 50 51  2  0
 51 52  1  0
 52 53  1  0
 43 54  1  1
 54 55  3  0
 55 56  1  0
 56 57  1  0
 57 58  1  0
 58 59  1  0
 59 60  1  0
 60 61  2  0
 11  2  1  0
  8  3  1  0
 18 12  1  0
 45 40  1  0
 51 46  1  0
M  CHG  3  53  -1  54   1  57   1
M  RAD  1  57   3
M  END
>  <fragInfo>  (1) 
1 2 3 4 5 6 7 8 9 10 11
12 13 14 15 16 17 18 19
20
21 22
23 24
25 26
27
28 29
30
31 32
33 34
35 36 37
38
39
40 41 42 43 44 45 54 55 56
46 47 48 49 50 51
52 53
57
58
59
60 61


>  <torsionInfo>  (1) 
11 12 0 1
12 20 1 2
20 21 2 3
22 23 3 4
24 25 4 5
26 27 5 6
27 28 6 7
27 33 6 10
28 30 7 8
30 31 8 9
34 35 10 11
34 38 10 12
38 39 12 13
39 40 13 14
45 46 14 15
56 57 14 17
51 52 15 16
57 58 17 18
58 59 18 19
59 60 19 20


>  <atomInfo>  (1) 
1  -0.2931953OA
2  0.17733050C 
3  0.02925457A 
4  -0.0506505A 
5  -0.0614976A 
6  -0.0614976A 
7  -0.0506505A 
8  0.02925457A 
9  0.17733050C 
10 -0.2931953OA
11 0.12106607C 
12 0.13350151C 
13 -0.2735193NA
14 0.04459610C 
15 0.14888955C 
16 -0.3724985OA
17 -0.2366642NA
18 -0.0958143S 
19 -0.0588051C 
20 0.00206850C 
21 -0.0811853C 
22 -0.0661532C 
23 -0.0625941C 
24 -0.0625732C 
25 -0.0655851C 
26 -0.0750260C 
27 0.02215399C 
28 0.07032546C 
29 -0.3917397OA
30 0.03003282C 
31 0.12210194C 
32 -0.3032955OA
33 -0.0695017C 
34 -0.0259551C 
35 -0.0613049C 
36 -0.0873120C 
37 -0.0466670C 
38 0.07260492C 
39 -0.3650377OA
40 0.09908122C 
41 -0.0475186C 
42 0.00493836C 
43 0.30926565C 
44 0.00959276C 
45 -0.0161743C 
46 0.05285092C 
47 -0.1216644SA
48 -0.0282703C 
49 -0.0559439C 
50 -0.0624649C 
51 -0.0693808C 
52 -0.1156576C 
53 -0.8512369OA
54 -0.0644300N 
55 0.34887042C 
56 0.32870270C 
57 0.16248308N 
58 0.20471806SA
59 0.07773932C 
60 -0.0760053C 
61 -0.1020452C 


$$$$
