
     RDKit          3D

 30 29  0  0  0  0  0  0  0  0999 V2000
    7.7964   -0.0842    2.2748 C   0  0  0  0  0  0  0  0  0  0  0  0
    6.3258   -0.4168    2.1270 C   0  0  0  0  0  0  0  0  0  0  0  0
    6.0518   -1.8071    2.6418 C   0  0  0  0  0  0  0  0  0  0  0  0
    5.9163   -0.3053    0.6529 C   0  0  0  0  0  0  0  0  0  0  0  0
    6.1569    1.0959    0.1560 C   0  0  0  0  0  0  0  0  0  0  0  0
    5.7599    1.2146   -1.2831 C   0  0  0  0  0  0  0  0  0  0  0  0
    4.2887    0.8794   -1.3935 C   0  0  1  0  0  0  0  0  0  0  0  0
    3.4364    1.8192   -0.5656 C   0  0  0  0  0  0  0  0  0  0  0  0
    3.8236    0.8597   -2.8305 C   0  0  2  0  0  0  0  0  0  0  0  0
    3.9954    2.0722   -3.4730 O   0  0  0  0  0  0  0  0  0  0  0  0
    2.3790    0.4077   -2.8336 C   0  0  0  0  0  3  0  0  0  0  0  0
    1.5703    1.3795   -2.0227 C   0  0  0  0  0  0  0  0  0  0  0  0
    2.3359   -0.9999   -2.2781 C   0  0  0  0  0  0  0  0  0  0  0  0
    0.8848   -1.4337   -2.2894 C   0  0  2  0  0  0  0  0  0  0  0  0
    0.3733   -1.3976   -3.7055 C   0  0  0  0  0  2  0  0  0  0  0  0
    0.1172   -0.4549   -1.4250 C   0  0  0  0  0  0  0  0  0  0  0  0
    0.7393   -0.5492   -0.0251 C   0  0  0  0  0  0  0  0  0  0  0  0
    0.5414   -2.0117    0.3955 C   0  0  0  0  0  0  0  0  0  0  0  0
   -0.9777   -2.2260    0.3822 C   0  0  0  0  0  0  0  0  0  0  0  0
   -1.5368   -1.2235    1.3905 C   0  0  0  0  0  0  0  0  0  0  0  0
   -3.0292   -1.3083    1.4953 C   0  0  0  0  0  0  0  0  0  0  0  0
   -3.6320   -1.0117    0.1280 C   0  0  0  0  0  0  0  0  0  0  0  0
   -5.1484   -1.1014    0.2496 C   0  0  0  0  0  0  0  0  0  0  0  0
   -5.5798   -0.0878    1.2581 C   0  0  2  0  0  0  0  0  0  0  0  0
   -4.9933   -0.2841    2.6184 C   0  0  0  0  0  0  0  0  0  0  0  0
   -7.0502    0.1958    1.2569 C   0  0  2  0  0  0  0  0  0  0  0  0
   -7.4941    0.7182   -0.0764 C   0  0  0  0  0  0  0  0  0  0  0  0
   -7.3506    1.1486    2.3948 C   0  0  0  0  0  3  0  0  0  0  0  0
   -6.5791    2.4255    2.1990 C   0  0  0  0  0  2  0  0  0  0  0  0
   -9.1213    1.4406    2.5806 S   0  0  0  0  0  0  0  0  0  0  0  0
  1  2  1  0
  2  3  1  0
  2  4  1  0
  4  5  1  0
  5  6  1  0
  6  7  1  0
  7  8  1  1
  7  9  1  0
  9 10  1  1
  9 11  1  0
 11 12  1  0
 11 13  1  0
 13 14  1  0
 14 15  1  6
 14 16  1  0
 16 17  1  0
 17 18  1  0
 18 19  1  0
 19 20  1  0
 20 21  1  0
 21 22  1  0
 22 23  1  0
 23 24  1  0
 24 25  1  1
 24 26  1  0
 26 27  1  6
 26 28  1  0
 28 29  1  0
 28 30  1  0
M  RAD  4  11   2  15   3  28   2  29   3
M  END
>  <fragInfo>  (1) 
1 2 3
4
5
6
7 8
9 10
11 12
13
14 15
16
17
18
19
20
21
22
23
24 25
26 27
28 29 30


>  <torsionInfo>  (1) 
2 4 0 1
4 5 1 2
5 6 2 3
6 7 3 4
7 9 4 5
9 11 5 6
11 13 6 7
13 14 7 8
14 16 8 9
16 17 9 10
17 18 10 11
18 19 11 12
19 20 12 13
20 21 13 14
21 22 14 15
22 23 15 16
23 24 16 17
24 26 17 18
26 28 18 19


>  <atomInfo>  (1) 
1  -0.0627736C 
2  -0.0471323C 
3  -0.0627736C 
4  -0.0509628C 
5  -0.0527130C 
6  -0.0482158C 
7  -0.0175405C 
8  -0.0600181C 
9  0.06250658C 
10 -0.3922601OA
11 0.00185564C 
12 -0.0565215C 
13 -0.0416146C 
14 -0.0373781C 
15 -0.0317776C 
16 -0.0501395C 
17 -0.0530312C 
18 -0.0532956C 
19 -0.0533057C 
20 -0.0533057C 
21 -0.0532958C 
22 -0.0530414C 
23 -0.0504054C 
24 -0.0403198C 
25 -0.0622033C 
26 -0.0254867C 
27 -0.0608702C 
28 0.03418656C 
29 -0.0161510C 
30 -0.1704206SA


$$$$
