
     RDKit          3D

 15 16  0  0  0  0  0  0  0  0999 V2000
   -0.5525   -3.1050    0.6191 C   0  0  0  0  0  0  0  0  0  0  0  0
   -1.1019   -1.8515   -0.0095 C   0  0  1  0  0  0  0  0  0  0  0  0
   -2.2285   -1.3278    0.7821 C   0  0  0  0  0  0  0  0  0  0  0  0
   -2.4575    0.1273    0.8014 C   0  0  2  0  0  0  0  0  0  0  0  0
   -3.6423    0.5094    0.1595 O   0  0  0  0  0  0  0  0  0  0  0  0
   -1.3600    0.9906    0.2895 C   0  0  2  0  0  0  0  0  0  0  0  0
   -1.7922    2.2395   -0.1108 O   0  0  0  0  0  0  0  0  0  0  0  0
   -0.6468    0.3568   -0.9008 C   0  0  1  0  0  0  0  0  0  0  0  0
    0.3573    1.2046   -1.3382 O   0  0  0  0  0  0  0  0  0  0  0  0
    0.0010   -0.8949   -0.3259 C   0  0  1  0  0  0  0  0  0  0  0  0
    0.7751   -0.4898    0.8274 N   0  0  0  0  0  0  0  0  0  0  0  0
    2.1657   -0.6065    0.4762 C   0  0  0  0  0  3  0  0  0  0  0  0
    2.9787    0.6100    0.8145 C   0  0  1  0  0  0  0  0  0  0  0  0
    4.3135    0.6440    0.0794 C   0  0  0  0  0  0  0  0  0  0  0  0
    3.1906    1.5932   -0.1460 O   0  0  0  0  0  0  0  0  0  0  0  0
  2  1  1  1
  2  3  1  0
  3  4  1  0
  4  5  1  6
  4  6  1  0
  6  7  1  6
  6  8  1  0
  8  9  1  1
  8 10  1  0
 10 11  1  1
 11 12  1  0
 13 12  1  6
 13 14  1  0
 13 15  1  0
 10  2  1  0
 15 14  1  0
M  RAD  1  12   2
M  END
>  <fragInfo>  (1) 
1 2 3 4 5 6 7 8 9 10
11
12
13 14 15


>  <torsionInfo>  (1) 
10 11 0 1
11 12 1 2
12 13 2 3


>  <atomInfo>  (1) 
1  -0.0608233C 
2  -0.0236268C 
3  -0.0201755C 
4  0.08280077C 
5  -0.3903155OA
6  0.10722524C 
7  -0.3876533OA
8  0.09793081C 
9  -0.3886791OA
10 0.03848774C 
11 -0.3042404NA
12 0.05387223C 
13 0.09782891C 
14 0.07501750C 
15 -0.3713638OA


$$$$
