
     RDKit          3D

 25 27  0  0  0  0  0  0  0  0999 V2000
   -6.0847    5.2964   -1.5591 C   0  0  0  0  0  0  0  0  0  0  0  0
   -4.8990    4.5883   -1.7178 C   0  0  0  0  0  0  0  0  0  0  0  0
   -4.9940    3.3113   -0.8811 C   0  0  0  0  0  0  0  0  0  0  0  0
   -3.9388    2.5264   -0.9376 C   0  0  0  0  0  0  0  0  0  0  0  0
   -3.8083    1.2733   -0.2569 C   0  0  0  0  0  0  0  0  0  0  0  0
   -2.5027    0.8233   -0.4340 C   0  0  0  0  0  0  0  0  0  0  0  0
   -2.1045   -0.3654    0.0806 C   0  0  0  0  0  0  0  0  0  0  0  0
   -1.3851   -1.3272    0.3870 C   0  0  0  0  0  0  0  0  0  0  0  0
   -0.5377   -2.2125    0.6177 F   0  0  0  0  0  0  0  0  0  0  0  0
   -0.0492   -0.2534   -0.2519 C   0  0  0  0  0  0  0  0  0  0  0  0
    1.0276   -0.8547   -0.1419 C   0  0  0  0  0  0  0  0  0  0  0  0
    1.4588   -2.0042    0.3044 C   0  0  0  0  0  0  0  0  0  0  0  0
    2.0390   -2.9035    0.6375 C   0  0  0  0  0  0  0  0  0  0  0  0
    2.0021   -4.3596    1.2976 C   0  0  0  0  0  0  0  0  0  0  0  0
    3.1932   -3.9285    2.2019 C   0  0  0  0  0  0  0  0  0  0  0  0
    3.5884   -2.4106    1.8831 C   0  0  0  0  0  0  0  0  0  0  0  0
    3.7544   -1.5666    1.5136 C   0  0  0  0  0  0  0  0  0  0  0  0
    4.1930    0.2879    0.9645 C   0  0  2  0  0  0  0  0  0  0  0  0
    3.4971    0.7461    2.1842 O   0  0  0  0  0  0  0  0  0  0  0  0
    3.7800   -0.4856    0.3104 S   0  0  0  0  0  0  0  0  0  0  0  0
    3.4852   -1.0564   -0.1594 C   0  0  0  0  0  0  0  0  0  0  0  0
    3.1579   -1.6773   -0.6590 C   0  0  2  0  0  0  0  0  0  0  0  0
   -2.6537    2.8310   -1.5221 C   0  0  0  0  0  0  0  0  0  0  0  0
   -1.8458    1.8344   -1.2079 C   0  0  0  0  0  0  0  0  0  0  0  0
   -0.3733    1.8871   -1.6742 C   0  0  0  0  0  0  0  0  0  0  0  0
  1  2  2  0
  2  3  1  0
  3  4  2  3
  4  5  1  0
  5  6  2  0
  6  7  1  0
  7  8  2  3
  8  9  1  0
  8 10  1  0
 10 11  2  3
 11 12  1  0
 12 13  2  0
 13 14  1  0
 14 15  2  0
 15 16  1  0
 16 17  2  0
 17 18  1  0
 18 19  1  1
 18 20  1  0
 20 21  3  0
 22 21  1  1
  4 23  1  0
 23 24  2  0
 24 25  1  0
 24  6  1  0
 22 12  1  0
 22 17  1  0
M  END
>  <fragInfo>  (1) 
12 13 14 15 16 17 18 19 20 21 22
1 2
3 4 5 6 23 24 25
7 8 9
10 11


>  <torsionInfo>  (1) 
11 12 4 0
2 3 1 2
6 7 2 3
8 10 3 4


>  <atomInfo>  (1) 
1  -0.0990446C 
2  -0.0688975C 
3  -0.0555417C 
4  -0.0247960C 
5  -0.0473239C 
6  -0.0192113C 
7  -0.0187663C 
8  0.12332533C 
9  -0.2069889F 
10 -0.0259702C 
11 -0.0545414C 
12 -0.0284215C 
13 -0.0574471C 
14 -0.0619355C 
15 -0.0621065C 
16 -0.0576906C 
17 -0.0079266C 
18 0.14642560C 
19 -0.3744054OA
20 -0.0971915SA
21 -0.0751376C 
22 0.07237934C 
23 -0.0514241C 
24 -0.0431559C 
25 -0.0391556C 


$$$$
