
     RDKit          3D

 20 19  0  0  0  0  0  0  0  0999 V2000
   -3.4663   -4.2323   -1.0753 C   0  0  0  0  0  0  0  0  0  0  0  0
   -4.6662   -3.3397   -0.5223 O   0  0  0  0  0  0  0  0  0  0  0  0
   -4.0005   -2.5323    0.4306 C   0  0  0  0  0  0  0  0  0  0  0  0
   -3.3175   -1.7202    0.1501 C   0  0  0  0  0  0  0  0  0  0  0  0
   -2.4805   -0.6291   -0.6538 C   0  0  0  0  0  0  0  0  0  0  0  0
   -1.3482   -1.0577    0.9050 C   0  0  0  0  0  0  0  0  0  0  0  0
   -0.4358    0.1520    0.1617 C   0  0  0  0  0  0  0  0  0  0  0  0
   -0.6336    0.9526   -0.8507 C   0  0  1  0  0  0  0  0  0  0  0  0
   -1.7594    1.9090   -0.6498 C   0  0  0  0  0  0  0  0  0  0  0  0
   -1.6502    2.7993    0.5070 O   0  0  0  0  0  0  0  0  0  0  0  0
   -2.2912    3.8600    0.2333 O   0  0  0  0  0  0  0  0  0  0  0  0
   -1.6943    4.8093   -0.4942 C   0  0  0  0  0  0  0  0  0  0  0  0
    0.5777    2.1090   -0.7674 C   0  0  0  0  0  0  0  0  0  0  0  0
    1.8166    1.2378   -0.9494 C   0  0  0  0  0  0  0  0  0  0  0  0
    2.7498    1.2854    0.2320 N   0  0  0  0  0  0  0  0  0  0  0  0
    3.1466   -0.1621    0.3142 C   0  0  0  0  0  0  0  0  0  0  0  0
    4.0282   -0.4230   -0.8805 C   0  0  0  0  0  0  0  0  0  0  0  0
    4.5139   -1.9775   -0.7769 C   0  0  0  0  0  3  0  0  0  0  0  0
    5.4291   -2.0235    0.3910 C   0  0  0  0  0  0  0  0  0  0  0  0
    5.4818   -1.0168    1.2171 C   0  0  0  0  0  0  0  0  0  0  0  0
  1  2  1  0
  2  3  1  0
  3  4  2  3
  4  5  1  0
  5  6  2  3
  6  7  1  0
  8  7  1  1
  8  9  1  0
  9 10  1  0
 10 11  1  0
 11 12  1  0
  8 13  1  0
 13 14  1  0
 14 15  1  0
 15 16  1  0
 16 17  1  0
 17 18  1  0
 18 19  1  0
 19 20  2  0
M  RAD  1  18   2
M  END
>  <fragInfo>  (1) 
1 2
3 4
5 6
7
8
9
10
11 12
13
14
15
16
17
18
19 20


>  <torsionInfo>  (1) 
2 3 0 1
4 5 1 2
6 7 2 3
7 8 3 4
8 9 4 5
8 13 4 8
9 10 5 6
10 11 6 7
13 14 8 9
14 15 9 10
15 16 10 11
16 17 11 12
17 18 12 13
18 19 13 14


>  <atomInfo>  (1) 
1  0.07660055C 
2  -0.5043680OA
3  0.08239866C 
4  -0.0278706C 
5  -0.0632171C 
6  -0.0840601C 
7  -0.0295404C 
8  -0.0099903C 
9  0.08533092C 
10 -0.2367169OA
11 -0.2400831OA
12 0.07124591C 
13 -0.0352002C 
14 -0.0045291C 
15 -0.3166980NA
16 -0.0043091C 
17 -0.0337806C 
18 -0.0160750C 
19 -0.0879990C 
20 -0.1027810C 


$$$$
