
     RDKit          3D

 20 19  0  0  0  0  0  0  0  0999 V2000
   -6.6246    0.5863    1.7081 O   0  0  0  0  0  0  0  0  0  0  0  0
   -5.7220    0.5221    0.6384 C   0  0  0  0  0  0  0  0  0  0  0  0
   -4.2962    0.6649    1.1788 C   0  0  0  0  0  3  0  0  0  0  0  0
   -3.4130    0.5933    0.0507 N   0  0  0  0  0  0  0  0  0  0  0  0
   -2.2008   -0.1410    0.3269 C   0  0  1  0  0  0  0  0  0  0  0  0
   -2.5602   -1.5670    0.6625 C   0  0  0  0  0  0  0  0  0  0  0  0
   -3.3860   -1.6303    1.7745 O   0  0  0  0  0  0  0  0  0  0  0  0
   -1.3452   -0.0868   -0.9284 C   0  0  1  0  0  0  0  0  0  0  0  0
   -1.0280    1.2020   -1.2783 O   0  0  0  0  0  0  0  0  0  0  0  0
   -0.1255   -0.9717   -0.8011 C   0  0  2  0  0  0  0  0  0  0  0  0
   -0.4503   -2.2668   -0.4510 O   0  0  0  0  0  0  0  0  0  0  0  0
    0.8477   -0.3848    0.2086 C   0  0  0  0  0  3  0  0  0  0  0  0
    1.2868    0.9934   -0.2352 C   0  0  0  0  0  3  0  0  0  0  0  0
    2.2337    0.9507   -1.2364 O   0  0  0  0  0  0  0  0  0  0  0  0
    3.4904    1.1093   -0.6924 C   0  0  2  0  0  0  0  0  0  0  0  0
    4.4702    1.0704   -1.6808 O   0  0  0  0  0  0  0  0  0  0  0  0
    3.7962    0.0464    0.3518 C   0  0  1  0  0  0  0  0  0  0  0  0
    3.7283   -1.2094   -0.2525 O   0  0  0  0  0  0  0  0  0  0  0  0
    5.1987    0.2382    0.8602 C   0  0  0  0  0  0  0  0  0  0  0  0
    6.0998    0.1672   -0.2044 O   0  0  0  0  0  0  0  0  0  0  0  0
  1  2  1  0
  2  3  1  0
  3  4  1  0
  4  5  1  0
  5  6  1  6
  6  7  1  0
  5  8  1  0
  8  9  1  1
  8 10  1  0
 10 11  1  1
 10 12  1  0
 12 13  1  0
 13 14  1  0
 14 15  1  0
 15 16  1  6
 15 17  1  0
 17 18  1  6
 17 19  1  0
 19 20  1  0
M  RAD  3   3   2  12   2  13   2
M  END
>  <fragInfo>  (1) 
1 2
3
4
5
6 7
8 9
10 11
12
13
14
15 16
17 18
19 20


>  <torsionInfo>  (1) 
2 3 0 1
3 4 1 2
4 5 2 3
5 6 3 4
5 8 3 5
8 10 5 6
10 12 6 7
12 13 7 8
13 14 8 9
14 15 9 10
15 17 10 11
17 19 11 12


>  <atomInfo>  (1) 
1  -0.3946905OA
2  0.06004187C 
3  0.04808498C 
4  -0.3028773NA
5  0.05917776C 
6  0.06106343C 
7  -0.3946489OA
8  0.09774982C 
9  -0.3886905OA
10 0.08734308C 
11 -0.3899571OA
12 0.02439182C 
13 0.09326297C 
14 -0.3436802OA
15 0.18306404C 
16 -0.3657426OA
17 0.12759176C 
18 -0.3854122OA
19 0.07408447C 
20 -0.3934777OA


$$$$
