
     RDKit          3D

 27 28  0  0  0  0  0  0  0  0999 V2000
    1.9589   -1.1338   -1.8797 C   0  0  0  0  0  0  0  0  0  0  0  0
    0.4901   -1.3220   -1.6905 C   0  0  0  0  0  0  0  0  0  0  0  0
   -0.0820   -2.5609   -1.9185 C   0  0  0  0  0  0  0  0  0  0  0  0
   -1.4393   -2.3935   -1.6437 C   0  0  0  0  0  0  0  0  0  0  0  0
   -1.6826   -1.1093   -1.2667 C   0  0  0  0  0  0  0  0  0  0  0  0
   -2.9526   -0.5055   -0.8081 C   0  0  0  0  0  0  0  0  0  0  0  0
   -4.0958   -1.2587   -0.7209 C   0  0  0  0  0  0  0  0  0  0  0  0
   -5.2872   -0.7316   -0.2078 C   0  0  0  0  0  0  0  0  0  0  0  0
   -5.3354    0.5851    0.2256 C   0  0  0  0  0  0  0  0  0  0  0  0
   -6.6090    1.1067    0.8413 C   0  0  0  0  0  0  0  0  0  0  0  0
   -7.8229    0.8245    0.0359 C   0  0  0  0  0  0  0  0  0  0  0  0
   -6.7247    0.5088    2.1270 O   0  0  0  0  0  0  0  0  0  0  0  0
   -6.3882    2.4652    1.0869 O   0  0  0  0  0  0  0  0  0  0  0  0
   -4.1903    1.3262    0.1308 C   0  0  0  0  0  0  0  0  0  0  0  0
   -3.0029    0.7950   -0.3823 C   0  0  0  0  0  0  0  0  0  0  0  0
   -0.4640   -0.4603   -1.3036 N   0  0  0  0  0  0  0  0  0  0  0  0
   -0.3372    0.8562   -0.9198 C   0  0  0  0  0  0  0  0  0  0  0  0
    0.6582    1.5507   -0.5588 C   0  0  0  0  0  0  0  0  0  0  0  0
    1.9911    1.1844   -0.4213 C   0  0  0  0  0  0  0  0  0  0  0  0
    3.1145    1.6874   -0.0993 C   0  0  0  0  0  0  0  0  0  0  0  0
    4.3635    0.8109   -0.1001 C   0  0  0  0  0  0  0  0  0  0  0  0
    4.8539    0.8218    1.3387 C   0  0  0  0  0  0  0  0  0  0  0  0
    5.9775    0.2164    1.6515 C   0  0  0  0  0  0  0  0  0  0  0  0
    6.7958   -0.4828    0.6876 C   0  0  0  0  0  0  0  0  0  0  0  0
    7.9079   -1.0770    1.0044 C   0  0  0  0  0  0  0  0  0  0  0  0
    8.4939   -1.1551    2.2806 N   0  0  0  0  0  0  0  0  0  0  0  0
    9.8086   -0.5085    2.5110 C   0  0  0  0  0  0  0  0  0  0  0  0
  1  2  1  0
  2  3  2  0
  3  4  1  0
  4  5  2  0
  5  6  1  0
  6  7  2  0
  7  8  1  0
  8  9  2  0
  9 10  1  0
 10 11  1  0
 10 12  1  0
 10 13  1  0
  9 14  1  0
 14 15  2  0
  5 16  1  0
 16 17  1  0
 17 18  2  3
 18 19  1  0
 19 20  2  3
 20 21  1  0
 21 22  1  0
 22 23  2  3
 23 24  1  0
 24 25  2  3
 25 26  1  0
 26 27  1  0
 16  2  1  0
 15  6  1  0
M  END
>  <fragInfo>  (1) 
1 2 3 4 5 16
6 7 8 9 14 15
10 11 12 13
17 18
19 20
21
22 23
24 25
26 27


>  <torsionInfo>  (1) 
5 6 0 1
16 17 0 3
9 10 1 2
18 19 3 4
20 21 4 5
21 22 5 6
23 24 6 7
25 26 7 8


>  <atomInfo>  (1) 
1  -0.0238761C 
2  0.01960802A 
3  -0.0404745A 
4  -0.0357144A 
5  0.05246479A 
6  -0.0015099A 
7  -0.0524047A 
8  -0.0530112A 
9  0.01021841A 
10 0.18628533C 
11 -0.0061467C 
12 -0.3621193OA
13 -0.3621193OA
14 -0.0530112A 
15 -0.0524047A 
16 -0.3205958N 
17 0.00909784C 
18 -0.0458454C 
19 -0.0644965C 
20 -0.0806856C 
21 -0.0162912C 
22 -0.0806861C 
23 -0.0645296C 
24 -0.0468187C 
25 -0.0038841C 
26 -0.3939692N 
27 0.00276581C 


$$$$
