
     RDKit          3D

 21 22  0  0  0  0  0  0  0  0999 V2000
   -4.6016    1.5345    0.9483 C   0  0  0  0  0  0  0  0  0  0  0  0
   -5.1362    0.1771    1.1619 C   0  0  0  0  0  0  0  0  0  0  0  0
   -4.6184   -1.0254    0.9873 C   0  0  0  0  0  0  0  0  0  0  0  0
   -3.2679   -1.2977    0.4950 C   0  0  0  0  0  0  0  0  0  0  0  0
   -2.1936   -0.5281    0.5119 C   0  0  0  0  0  0  0  0  0  0  0  0
   -0.9961   -1.0388   -0.0362 N   0  0  0  0  0  0  0  0  0  0  0  0
   -0.8873   -2.2685   -0.5763 C   0  0  0  0  0  0  0  0  0  0  0  0
   -1.9731   -3.2928   -0.6956 C   0  0  0  0  0  0  0  0  0  0  0  0
    0.4203   -2.3762   -0.9884 C   0  0  0  0  0  0  0  0  0  0  0  0
    1.1107   -1.2174   -0.7022 C   0  0  0  0  0  0  0  0  0  0  0  0
    0.1787   -0.3850   -0.0954 C   0  0  0  0  0  0  0  0  0  0  0  0
    0.3795    0.9629    0.4067 C   0  0  0  0  0  0  0  0  0  0  0  0
    1.5649    1.5144    0.3022 C   0  0  0  0  0  0  0  0  0  0  0  0
    2.6404    0.7605   -0.3124 C   0  0  0  0  0  0  0  0  0  0  0  0
    3.8508    1.2745   -0.4394 C   0  0  0  0  0  0  0  0  0  0  0  0
    5.1064    0.2635   -1.2111 S   0  0  0  0  0  0  0  0  0  0  0  0
    4.4522   -1.3376   -1.6908 C   0  0  0  0  0  0  0  0  0  0  0  0
    4.0921    2.6059    0.0445 C   0  0  0  0  0  0  0  0  0  0  0  0
    5.1786    3.2089   -0.0109 O   0  0  0  0  0  0  0  0  0  0  0  0
   -2.1428    0.8210    1.0568 C   0  0  0  0  0  0  0  0  0  0  0  0
   -3.1577    1.6443    1.2224 C   0  0  0  0  0  0  0  0  0  0  0  0
  1  2  1  0
  2  3  2  0
  3  4  1  0
  4  5  2  0
  5  6  1  0
  6  7  1  0
  7  8  1  0
  7  9  2  0
  9 10  1  0
 10 11  2  0
 11 12  1  0
 12 13  2  3
 13 14  1  0
 14 15  2  3
 15 16  1  0
 16 17  1  0
 15 18  1  0
 18 19  2  0
  5 20  1  0
 20 21  2  0
 21  1  1  0
 11  6  1  0
M  END
>  <fragInfo>  (1) 
1 2 3 4 5 20 21
6 7 8 9 10 11
12 13
14 15
16 17
18 19


>  <torsionInfo>  (1) 
5 6 0 1
11 12 1 2
13 14 2 3
15 16 3 4
15 18 3 5


>  <atomInfo>  (1) 
1  -0.0162154C 
2  -0.0806623C 
3  -0.0638790C 
4  -0.0383616C 
5  0.04545785C 
6  -0.3145247N 
7  0.02019604A 
8  -0.0238540C 
9  -0.0404746A 
10 -0.0363075A 
11 0.04583978A 
12 -0.0380021C 
13 -0.0589530C 
14 -0.0452253C 
15 0.04681701C 
16 -0.1262458SA
17 -0.0135168C 
18 0.15586544C 
19 -0.2973167OA
20 -0.0417348C 
21 -0.0786575C 


$$$$
