
     RDKit          3D

 25 25  0  0  0  0  0  0  0  0999 V2000
   -3.6097    1.7772   -0.3514 C   0  0  0  0  0  0  0  0  0  0  0  0
   -4.0103    0.6595    0.5906 C   0  0  1  0  0  0  0  0  0  0  0  0
   -5.5226    0.4850    0.5443 C   0  0  0  0  0  0  0  0  0  0  0  0
   -5.8756   -0.4086   -0.6257 C   0  0  2  0  0  0  0  0  0  0  0  0
   -5.7774   -1.7300   -0.1872 O   0  0  0  0  0  0  0  0  0  0  0  0
   -4.8701   -0.1568   -1.7248 C   0  0  2  0  0  0  0  0  0  0  0  0
   -5.3288   -0.5537   -2.9696 O   0  0  0  0  0  0  0  0  0  0  0  0
   -3.6034   -0.9100   -1.3295 C   0  0  1  0  0  0  0  0  0  0  0  0
   -2.5653   -0.5707   -2.1607 O   0  0  0  0  0  0  0  0  0  0  0  0
   -3.3581   -0.6014    0.1226 C   0  0  1  0  0  0  0  0  0  0  0  0
   -2.0134   -0.7949    0.5577 N   0  0  0  0  0  0  0  0  0  0  0  0
   -1.0904    0.2168    0.0781 C   0  0  0  0  0  3  0  0  0  0  0  0
    0.2950   -0.4089    0.1237 C   0  0  0  0  0  0  0  0  0  0  0  0
    1.2817    0.4702   -0.3147 O   0  0  0  0  0  0  0  0  0  0  0  0
    1.3655    1.6135    0.4241 C   0  0  0  0  0  0  0  0  0  0  0  0
    1.6434    1.5557    1.7221 O   0  0  0  0  0  0  0  0  0  0  0  0
    2.7534    1.0565    2.2569 C   0  0  0  0  0  0  0  0  0  0  0  0
    3.1690   -0.3230    2.0088 C   0  0  0  0  0  0  0  0  0  0  0  0
    3.4306   -0.6243    0.7037 O   0  0  0  0  0  0  0  0  0  0  0  0
    4.5027    0.0146    0.1551 C   0  0  1  0  0  0  0  0  0  0  0  0
    4.4824    1.3837    0.1237 O   0  0  0  0  0  0  0  0  0  0  0  0
    5.8400   -0.4433    0.7002 C   0  0  2  0  0  0  0  0  0  0  0  0
    6.8248    0.2945    0.0480 O   0  0  0  0  0  0  0  0  0  0  0  0
    6.0351   -1.9369    0.4361 C   0  0  0  0  0  3  0  0  0  0  0  0
    6.0016   -2.2049   -0.9319 O   0  0  0  0  0  0  0  0  0  0  0  0
  2  1  1  6
  2  3  1  0
  3  4  1  0
  4  5  1  1
  4  6  1  0
  6  7  1  6
  6  8  1  0
  8  9  1  6
  8 10  1  0
 10 11  1  6
 11 12  1  0
 12 13  1  0
 13 14  1  0
 14 15  1  0
 15 16  1  0
 16 17  1  0
 17 18  1  0
 18 19  1  0
 19 20  1  0
 20 21  1  1
 20 22  1  0
 22 23  1  6
 22 24  1  0
 24 25  1  0
 10  2  1  0
M  RAD  2  12   2  24   2
M  END
>  <fragInfo>  (1) 
1 2 3 4 5 6 7 8 9 10
11
12
13
14
15
16
17
18
19
20 21
22 23
24 25


>  <torsionInfo>  (1) 
10 11 0 1
11 12 1 2
12 13 2 3
13 14 3 4
14 15 4 5
15 16 5 6
16 17 6 7
17 18 7 8
18 19 8 9
19 20 9 10
20 22 10 11
22 24 11 12


>  <atomInfo>  (1) 
1  -0.0608233C 
2  -0.0236270C 
3  -0.0201755C 
4  0.08280077C 
5  -0.3903155OA
6  0.10722524C 
7  -0.3876533OA
8  0.09793062C 
9  -0.3886791OA
10 0.03847605C 
11 -0.3045626NA
12 0.04842698C 
13 0.06641411C 
14 -0.3537462OA
15 0.14640331C 
16 -0.3530358OA
17 0.07299617C 
18 0.07340314C 
19 -0.3476784OA
20 0.18309775C 
21 -0.3657415OA
22 0.13303869C 
23 -0.3849930OA
24 0.11343716C 
25 -0.3873931OA


$$$$
