
     RDKit          3D

 70 71  0  0  0  0  0  0  0  0999 V2000
    2.6914    2.2867    4.2622 C   0  0  0  0  0  0  0  0  0  0  0  0
    1.6890    1.4389    4.1054 C   0  0  0  0  0  0  0  0  0  0  0  0
    1.1366    0.7769    5.3132 C   0  0  0  0  0  0  0  0  0  0  0  0
    1.1807    1.2033    2.7346 C   0  0  0  0  0  3  0  0  0  0  0  0
   -0.0743    0.3607    2.7416 C   0  0  0  0  0  0  0  0  0  0  0  0
   -0.6172    0.1011    1.3808 C   0  0  0  0  0  0  0  0  0  0  0  0
    0.3508   -0.6296    0.4809 C   0  0  2  0  0  0  0  0  0  0  0  0
    0.6966   -1.9554    1.0901 C   0  0  0  0  0  0  0  0  0  0  0  0
    1.5702    0.2360    0.2511 C   0  0  0  0  0  0  0  0  0  0  0  0
    1.2073    1.6379   -0.1409 C   0  0  0  0  0  0  0  0  0  0  0  0
    2.3990    2.5507   -0.1372 C   0  0  0  0  0  0  0  0  0  0  0  0
    3.7122    1.8282   -0.2036 C   0  0  0  0  0  3  0  0  0  0  0  0
    4.2905    1.6056    1.0307 O   0  0  0  0  0  0  0  0  0  0  0  0
    4.1961    0.2901    1.4566 C   0  0  0  0  0  0  0  0  0  0  0  0
    5.4898   -0.3248    1.7862 C   0  0  0  0  0  0  0  0  0  0  0  0
    6.3518    0.3533    2.5313 C   0  0  0  0  0  0  0  0  0  0  0  0
    7.6586   -0.2646    2.8658 C   0  0  0  0  0  0  0  0  0  0  0  0
    8.7005    0.3375    1.9443 C   0  0  0  0  0  0  0  0  0  0  0  0
    9.2018   -0.7678    1.0439 C   0  0  0  0  0  3  0  0  0  0  0  0
    9.4322   -1.9981    1.8911 C   0  0  0  0  0  3  0  0  0  0  0  0
   10.5733   -1.8375    2.8561 C   0  0  0  0  0  3  0  0  0  0  0  0
   11.8455   -1.6595    2.0483 C   0  0  0  0  0  0  0  0  0  0  0  0
   11.9217   -0.2200    1.5589 C   0  0  0  0  0  0  0  0  0  0  0  0
   11.9024   -0.2499    0.0265 C   0  0  0  0  0  0  0  0  0  0  0  0
   12.0521    1.1259   -0.5397 C   0  0  0  0  0  0  0  0  0  0  0  0
   10.8306    1.9519   -0.1862 C   0  0  0  0  0  0  0  0  0  0  0  0
    9.8842    2.0832   -1.3591 C   0  0  2  0  0  0  0  0  0  0  0  0
    8.5004    2.3519   -0.7911 C   0  0  0  0  0  0  0  0  0  0  0  0
    9.8847    0.7549   -2.0912 C   0  0  0  0  0  0  0  0  0  0  0  0
    8.4699    0.4757   -2.5603 C   0  0  0  0  0  3  0  0  0  0  0  0
    8.1456   -0.9919   -2.3608 C   0  0  0  0  0  0  0  0  0  0  0  0
    6.9220   -1.0615   -1.4615 C   0  0  0  0  0  3  0  0  0  0  0  0
    5.8605   -0.1816   -2.0671 C   0  0  0  0  0  0  0  0  0  0  0  0
    4.5506   -0.9286   -2.0084 C   0  0  0  0  0  0  0  0  0  0  0  0
    3.7021   -0.7149   -3.2162 C   0  0  1  0  0  0  0  0  0  0  0  0
    4.3677    0.0291   -4.3237 C   0  0  0  0  0  2  0  0  0  0  0  0
    2.9996   -1.9747   -3.6859 C   0  0  0  0  0  0  0  0  0  0  0  0
    1.6209   -1.5287   -4.1786 C   0  0  0  0  0  0  0  0  0  0  0  0
    0.6286   -1.5349   -3.0983 C   0  0  0  0  0  0  0  0  0  0  0  0
    0.7798   -0.8665   -1.9514 C   0  0  0  0  0  0  0  0  0  0  0  0
   -0.2544   -0.9013   -0.8812 C   0  0  1  0  0  0  0  0  0  0  0  0
   -0.8528   -2.3136   -0.9224 C   0  0  0  0  0  2  0  0  0  0  0  0
   -1.4005    0.0469   -1.1829 C   0  0  0  0  0  0  0  0  0  0  0  0
   -2.4510   -0.1567   -0.1168 C   0  0  0  0  0  3  0  0  0  0  0  0
   -3.6303    0.7418   -0.3305 C   0  0  0  0  0  0  0  0  0  0  0  0
   -4.2328    0.4338   -1.6720 C   0  0  0  0  0  3  0  0  0  0  0  0
   -4.6629   -1.0225   -1.6658 C   0  0  0  0  0  3  0  0  0  0  0  0
   -4.3477   -1.7125   -0.3705 C   0  0  0  0  0  0  0  0  0  0  0  0
   -5.0562   -1.0282    0.7805 C   0  0  2  0  0  0  0  0  0  0  0  0
   -4.7336   -1.7283    2.0780 C   0  0  0  0  0  0  0  0  0  0  0  0
   -6.5461   -1.0975    0.4946 C   0  0  2  0  0  0  0  0  0  0  0  0
   -6.8575   -0.4000   -0.7964 C   0  0  0  0  0  0  0  0  0  0  0  0
   -7.6548   -1.3598   -1.6858 C   0  0  0  0  0  3  0  0  0  0  0  0
   -8.1876   -0.6342   -2.8971 C   0  0  0  0  0  0  0  0  0  0  0  0
   -8.7482    0.6945   -2.5335 C   0  0  0  0  0  0  0  0  0  0  0  0
   -8.1395    1.5194   -1.7108 C   0  0  0  0  0  0  0  0  0  0  0  0
   -8.7523    2.8288   -1.3901 C   0  0  0  0  0  0  0  0  0  0  0  0
  -10.2485    2.7174   -1.6144 C   0  0  0  0  0  0  0  0  0  0  0  0
  -10.7017    1.3797   -1.0817 C   0  0  0  0  0  0  0  0  0  0  0  0
  -11.6960    1.6659    0.0357 C   0  0  0  0  0  0  0  0  0  0  0  0
  -12.6884    0.5211    0.1701 C   0  0  0  0  0  0  0  0  0  0  0  0
  -12.1680   -0.7399   -0.4753 C   0  0  1  0  0  0  0  0  0  0  0  0
  -11.9845   -0.5376   -1.9666 C   0  0  0  0  0  0  0  0  0  0  0  0
  -10.7962   -1.0337    0.1112 C   0  0  0  0  0  0  0  0  0  0  0  0
  -10.9141   -1.1142    1.6190 C   0  0  0  0  0  0  0  0  0  0  0  0
   -9.6800   -0.5463    2.3044 C   0  0  0  0  0  3  0  0  0  0  0  0
   -8.6970   -0.1453    1.2049 C   0  0  0  0  0  0  0  0  0  0  0  0
   -7.3171   -0.5436    1.6693 C   0  0  2  0  0  0  0  0  0  0  0  0
   -6.6598    0.6429    2.2489 C   0  0  0  0  0  0  0  0  0  0  0  0
   -6.6463    0.9126    3.5386 C   0  0  0  0  0  3  0  0  0  0  0  0
  1  2  2  0
  2  3  1  0
  2  4  1  0
  4  5  1  0
  5  6  1  0
  6  7  1  0
  7  8  1  1
  7  9  1  0
  9 10  1  0
 10 11  1  0
 11 12  1  0
 12 13  1  0
 13 14  1  0
 14 15  1  0
 15 16  2  3
 16 17  1  0
 17 18  1  0
 18 19  1  0
 19 20  1  0
 20 21  1  0
 21 22  1  0
 22 23  1  0
 23 24  1  0
 24 25  1  0
 25 26  1  0
 26 27  1  0
 27 28  1  1
 27 29  1  0
 29 30  1  0
 30 31  1  0
 31 32  1  0
 32 33  1  0
 33 34  1  0
 34 35  1  0
 35 36  1  6
 35 37  1  0
 37 38  1  0
 38 39  1  0
 39 40  2  3
 40 41  1  0
 41 42  1  1
 41 43  1  0
 43 44  1  0
 44 45  1  0
 45 46  1  0
 46 47  1  0
 47 48  1  0
 48 49  1  0
 49 50  1  1
 51 49  1  0
 51 52  1  6
 52 53  1  0
 53 54  1  0
 54 55  1  0
 55 56  2  3
 56 57  1  0
 57 58  1  0
 58 59  1  0
 59 60  1  0
 60 61  1  0
 61 62  1  0
 62 63  1  6
 62 64  1  0
 64 65  1  0
 65 66  1  0
 66 67  1  0
 67 68  1  0
 68 69  1  6
 69 70  2  0
 41  7  1  0
 68 51  1  0
M  RAD  8   4   2  12   2  19   2  20   2  21   2  30   2  32   2  36   3
M  RAD  7  42   3  44   2  46   2  47   2  53   2  66   2  70   2
M  END
>  <fragInfo>  (1) 
7 8 9 10 11 12 13 14 15 16 17 18 19 20 21 22 23 24 25 26 27 28 29 30 31 32 33 34 35 36 37 38 39 40 41 42
1 2 3
4
5
6
43
44
45
46
47
48
49 50
51 52 53 54 55 56 57 58 59 60 61 62 63 64 65 66 67 68
69 70


>  <torsionInfo>  (1) 
6 7 4 0
41 43 0 5
2 4 1 2
4 5 2 3
5 6 3 4
43 44 5 6
44 45 6 7
45 46 7 8
46 47 8 9
47 48 9 10
48 49 10 11
49 51 11 12
68 69 12 13


>  <atomInfo>  (1) 
1  -0.0998388C 
2  -0.0768143C 
3  -0.0439038C 
4  -0.0143029C 
5  -0.0455895C 
6  -0.0464274C 
7  -0.0231493C 
8  -0.0588000C 
9  -0.0469220C 
10 -0.0501865C 
11 -0.0241261C 
12 0.08406404C 
13 -0.3714708OA
14 0.06520690C 
15 -0.0629844C 
16 -0.0862518C 
17 -0.0347039C 
18 -0.0464051C 
19 -0.0345909C 
20 -0.0317892C 
21 -0.0348962C 
22 -0.0498865C 
23 -0.0530210C 
24 -0.0532855C 
25 -0.0530519C 
26 -0.0507008C 
27 -0.0440062C 
28 -0.0624993C 
29 -0.0475785C 
30 -0.0380373C 
31 -0.0470505C 
32 -0.0382899C 
33 -0.0498980C 
34 -0.0498766C 
35 -0.0377093C 
36 -0.0317891C 
37 -0.0466815C 
38 -0.0347776C 
39 -0.0879375C 
40 -0.0814538C 
41 -0.0027374C 
42 -0.0237471C 
43 -0.0401641C 
44 -0.0374006C 
45 -0.0467422C 
46 -0.0348973C 
47 -0.0349076C 
48 -0.0470173C 
49 -0.0405784C 
50 -0.0622125C 
51 -0.0322196C 
52 -0.0462008C 
53 -0.0345191C 
54 -0.0319352C 
55 -0.0882530C 
56 -0.0885287C 
57 -0.0350732C 
58 -0.0498248C 
59 -0.0530011C 
60 -0.0530413C 
61 -0.0507108C 
62 -0.0442697C 
63 -0.0625095C 
64 -0.0504368C 
65 -0.0499075C 
66 -0.0379827C 
67 -0.0435540C 
68 -0.0196637C 
69 -0.0811328C 
70 -0.0662921C 


$$$$
