
     RDKit          3D

 20 19  0  0  0  0  0  0  0  0999 V2000
   -3.7319    0.1509   -3.0707 O   0  0  0  0  0  0  0  0  0  0  0  0
   -4.2741   -0.1800   -1.8318 C   0  0  0  0  0  0  0  0  0  0  0  0
   -3.2389    0.1606   -0.7919 C   0  0  0  0  0  3  0  0  0  0  0  0
   -3.7018   -0.1476    0.5626 N   0  0  0  0  0  0  0  0  0  0  0  0
   -2.6046    0.1932    1.4548 C   0  0  2  0  0  0  0  0  0  0  0  0
   -2.3928    1.6978    1.2895 C   0  0  0  0  0  0  0  0  0  0  0  0
   -2.0696    2.0174   -0.0391 O   0  0  0  0  0  0  0  0  0  0  0  0
   -1.3879   -0.5513    0.9889 C   0  0  1  0  0  0  0  0  0  0  0  0
   -0.9787   -0.2674   -0.2897 O   0  0  0  0  0  0  0  0  0  0  0  0
   -0.3113   -0.6567    2.0112 C   0  0  2  0  0  0  0  0  0  0  0  0
    0.3841    0.5239    2.1025 O   0  0  0  0  0  0  0  0  0  0  0  0
    0.5265   -1.8298    1.7348 C   0  0  0  0  0  0  0  0  0  0  0  0
    1.8326   -1.6865    1.5916 C   0  0  0  0  0  0  0  0  0  0  0  0
    2.4651   -0.3679    1.7035 C   0  0  0  0  0  0  0  0  0  0  0  0
    3.1248   -0.0005    0.5587 O   0  0  0  0  0  0  0  0  0  0  0  0
    2.2426    0.0483   -0.5074 C   0  0  0  0  0  3  0  0  0  0  0  0
    2.9075    0.8075   -1.6356 C   0  0  2  0  0  0  0  0  0  0  0  0
    2.0360    0.9157   -2.8524 C   0  0  0  0  0  0  0  0  0  0  0  0
    4.2439    0.2611   -1.9297 C   0  0  0  0  0  0  0  0  0  0  0  0
    4.9285   -0.2227   -1.0498 O   0  0  0  0  0  0  0  0  0  0  0  0
  1  2  1  0
  2  3  1  0
  3  4  1  0
  4  5  1  0
  5  6  1  6
  6  7  1  0
  5  8  1  0
  8  9  1  6
  8 10  1  0
 10 11  1  6
 10 12  1  0
 12 13  2  3
 13 14  1  0
 14 15  1  0
 15 16  1  0
 16 17  1  0
 17 18  1  6
 17 19  1  0
 19 20  2  0
M  RAD  2   3   2  16   2
M  END
>  <fragInfo>  (1) 
1 2
3
4
5
6 7
8 9
10 11
12 13
14
15
16
17 18
19 20


>  <torsionInfo>  (1) 
2 3 0 1
3 4 1 2
4 5 2 3
5 6 3 4
5 8 3 5
8 10 5 6
10 12 6 7
13 14 7 8
14 15 8 9
15 16 9 10
16 17 10 11
17 19 11 12


>  <atomInfo>  (1) 
1  -0.3946905OA
2  0.06004187C 
3  0.04808515C 
4  -0.3028668NA
5  0.05949586C 
6  0.06107622C 
7  -0.3946486OA
8  0.10095506C 
9  -0.3883557OA
10 0.09965708C 
11 -0.3862659OA
12 -0.0552736C 
13 -0.0603314C 
14 0.06533501C 
15 -0.3707090OA
16 0.09389482C 
17 0.04062275C 
18 -0.0532004C 
19 0.12498875C 
20 -0.3029912OA


$$$$
