
     RDKit          3D

 35 38  0  0  0  0  0  0  0  0999 V2000
    1.2845    4.3957   -1.2604 C   0  0  0  0  0  0  0  0  0  0  0  0
    1.8737    3.4681   -0.2456 C   0  0  1  0  0  0  0  0  0  0  0  0
    0.9071    3.0248    0.8004 C   0  0  0  0  0  0  0  0  0  0  0  0
    2.7126    2.3754   -0.8215 C   0  0  0  0  0  0  0  0  0  0  0  0
    4.1605    2.5755   -0.3957 C   0  0  0  0  0  0  0  0  0  0  0  0
    4.6536    1.3764    0.3837 C   0  0  0  0  0  0  0  0  0  0  0  0
    4.3356    0.0720   -0.2908 C   0  0  1  0  0  0  0  0  0  0  0  0
    5.5111   -0.5758   -0.9456 C   0  0  0  0  0  0  0  0  0  0  0  0
    3.5734   -0.8763    0.6077 C   0  0  0  0  0  3  0  0  0  0  0  0
    3.5607   -2.2496   -0.0285 C   0  0  0  0  0  0  0  0  0  0  0  0
    2.3422   -3.0014    0.4327 C   0  0  0  0  0  0  0  0  0  0  0  0
    1.5126   -3.5180   -0.7410 C   0  0  0  0  0  3  0  0  0  0  0  0
    0.1580   -3.9203   -0.1668 C   0  0  0  0  0  0  0  0  0  0  0  0
    1.2518   -2.4035   -1.7343 C   0  0  0  0  0  3  0  0  0  0  0  0
    1.2192   -1.0539   -1.0779 C   0  0  0  0  0  0  0  0  0  0  0  0
   -0.0327   -0.2746   -1.3767 C   0  0  1  0  0  0  0  0  0  0  0  0
   -0.7872   -0.8467   -2.4608 N   0  0  0  0  0  0  0  0  0  0  0  0
   -0.8202   -0.1376   -0.1115 C   0  0  2  0  0  0  0  0  0  0  0  0
   -2.2942   -0.3532   -0.2939 C   0  0  0  0  0  0  0  0  0  0  0  0
   -2.7012   -1.5171    0.5834 C   0  0  0  0  0  3  0  0  0  0  0  0
   -4.1797   -1.6067    0.7752 C   0  0  0  0  0  0  0  0  0  0  0  0
   -2.0561   -2.8067    0.1921 C   0  0  0  0  0  3  0  0  0  0  0  0
   -0.5592   -2.6835    0.2713 C   0  0  1  0  0  0  0  0  0  0  0  0
   -0.1238   -2.2517    1.5245 O   0  0  0  0  0  0  0  0  0  0  0  0
   -0.9683   -1.3914    2.0521 O   0  0  0  0  0  0  0  0  0  0  0  0
   -0.3018   -0.3806    2.5888 O   0  0  0  0  0  0  0  0  0  0  0  0
   -0.2423    0.8407    1.9631 N   0  0  0  0  0  0  0  0  0  0  0  0
   -0.4750    1.0110    0.7052 C   0  0  0  0  0  0  0  0  0  0  0  0
   -0.3635    2.4161    0.1939 C   0  0  0  0  0  3  0  0  0  0  0  0
   -1.7555    3.3358    0.9337 S   0  0  0  0  0  0  0  0  0  0  0  0
   -3.1754    3.0950    0.0036 O   0  0  0  0  0  0  0  0  0  0  0  0
   -4.0101    2.2706    0.5685 O   0  0  0  0  0  0  0  0  0  0  0  0
   -4.7870    1.6942   -0.4152 C   0  0  0  0  0  0  0  0  0  0  0  0
   -4.7450    0.1980   -0.4197 C   0  0  0  0  0  0  0  0  0  0  0  0
   -4.6781   -0.3010    0.8808 O   0  0  0  0  0  0  0  0  0  0  0  0
  2  1  1  6
  2  3  1  0
  2  4  1  0
  4  5  1  0
  5  6  1  0
  6  7  1  0
  7  8  1  1
  7  9  1  0
  9 10  1  0
 10 11  1  0
 11 12  1  0
 12 13  1  0
 12 14  1  0
 14 15  1  0
 15 16  1  0
 16 17  1  6
 16 18  1  0
 18 19  1  6
 19 20  1  0
 20 21  1  0
 20 22  1  0
 22 23  1  0
 23 24  1  0
 24 25  1  0
 25 26  1  0
 26 27  1  0
 27 28  2  3
 28 29  1  0
 29 30  1  0
 30 31  1  0
 31 32  1  0
 32 33  1  0
 33 34  1  0
 34 35  1  0
 29  3  1  0
 23 13  1  1
 28 18  1  0
 35 21  1  0
M  RAD  6   9   2  12   2  14   2  20   2  22   2  29   2
M  END
>  <fragInfo>  (1) 
1 2 3 4 5 6 7 8 9 10 11 12 13 14 15 16 17 18 19 20 21 22 23 24 25 26 27 28 29 30 31 32 33 34 35


>  <torsionInfo>  (1) 


>  <atomInfo>  (1) 
1  -0.0624441C 
2  -0.0424290C 
3  -0.0260947C 
4  -0.0506355C 
5  -0.0527871C 
6  -0.0504264C 
7  -0.0411602C 
8  -0.0622342C 
9  -0.0357293C 
10 -0.0493567C 
11 -0.0463927C 
12 -0.0179430C 
13 -0.0165602C 
14 -0.0301607C 
15 -0.0336502C 
16 0.01246904C 
17 -0.3270704NA
18 0.01815819C 
19 -0.0345786C 
20 0.00844533C 
21 0.05334697C 
22 0.00296446C 
23 0.10157698C 
24 -0.1908506OA
25 0.00935815OA
26 -0.1890713OA
27 -0.0493448NA
28 0.08635284C 
29 0.10981183C 
30 0.04650517SA
31 -0.1622892OA
32 -0.2218771OA
33 0.10679071C 
34 0.07325750C 
35 -0.3783164OA


$$$$
