
     RDKit          3D

 25 27  0  0  0  0  0  0  0  0999 V2000
    0.5878    0.6532   -2.4683 C   0  0  0  0  0  0  0  0  0  0  0  0
   -0.6899    1.4046   -2.4041 C   0  0  0  0  0  3  0  0  0  0  0  0
   -1.9088    0.5497   -2.2894 C   0  0  0  0  0  0  0  0  0  0  0  0
   -1.9572   -0.3054   -1.0682 C   0  0  2  0  0  0  0  0  0  0  0  0
   -1.7988   -1.6355   -1.4192 O   0  0  0  0  0  0  0  0  0  0  0  0
   -3.1720   -0.1363   -0.2281 C   0  0  2  0  0  0  0  0  0  0  0  0
   -4.1875    0.4449   -1.0160 O   0  0  0  0  0  0  0  0  0  0  0  0
   -2.9960    0.7073    0.9835 C   0  0  1  0  0  0  0  0  0  0  0  0
   -4.2816    0.9416    1.5223 O   0  0  0  0  0  0  0  0  0  0  0  0
   -2.2358    0.1552    1.9798 O   0  0  0  0  0  0  0  0  0  0  0  0
   -1.5888   -1.0063    1.6547 C   0  0  0  0  0  3  0  0  0  0  0  0
   -0.1998   -1.0003    2.1346 C   0  0  0  0  0  3  0  0  0  0  0  0
    0.6416   -0.0250    1.7217 N   0  0  0  0  0  0  0  0  0  0  0  0
    0.1778    1.1937    1.1122 C   0  0  0  0  0  3  0  0  0  0  0  0
    0.7276    1.7022   -0.2432 C   0  0  0  0  0  0  0  0  0  0  0  0
    1.2547    0.6175   -1.2173 C   0  0  1  0  0  0  0  0  0  0  0  0
    0.8948   -0.4907   -0.3712 O   0  0  0  0  0  0  0  0  0  0  0  0
    2.6415    0.3035   -1.2433 O   0  0  0  0  0  0  0  0  0  0  0  0
    3.0051   -0.9601   -0.7031 C   0  0  1  0  0  0  0  0  0  0  0  0
    4.3869   -0.9595   -0.7424 O   0  0  0  0  0  0  0  0  0  0  0  0
    2.6128   -1.3930    0.7099 C   0  0  2  0  0  0  0  0  0  0  0  0
    1.9299   -2.5793    0.7930 O   0  0  0  0  0  0  0  0  0  0  0  0
    2.0774   -0.3514    1.7003 C   0  0  1  0  0  0  0  0  0  0  0  0
    2.4224    0.7752    0.8532 O   0  0  0  0  0  0  0  0  0  0  0  0
    1.6559    0.1621    0.2485 O   0  0  0  0  0  0  0  0  0  0  0  0
  1  2  1  0
  2  3  1  0
  3  4  1  0
  4  5  1  6
  4  6  1  0
  6  7  1  6
  6  8  1  0
  8  9  1  1
  8 10  1  0
 10 11  1  0
 11 12  1  0
 12 13  1  0
 13 14  1  0
 14 15  1  0
 15 16  1  0
 16 17  1  0
 16 18  1  0
 18 19  1  0
 19 20  1  1
 19 21  1  0
 21 22  1  6
 21 23  1  0
 23 24  1  6
 24 25  1  0
 16  1  1  6
 23 13  1  0
 25 17  1  0
M  RAD  4   2   2  11   2  12   2  14   2
M  END
>  <fragInfo>  (1) 
1 2 3 4 5 6 7 8 9 10 11 12 13 14 15 16 17 18 19 20 21 22 23 24 25


>  <torsionInfo>  (1) 


>  <atomInfo>  (1) 
1  0.00781519C 
2  -0.0304939C 
3  -0.0209248C 
4  0.08516148C 
5  -0.3902135OA
6  0.13040307C 
7  -0.3851046OA
8  0.18342407C 
9  -0.3657331OA
10 -0.3423131OA
11 0.10584429C 
12 0.05983788C 
13 -0.2610126NA
14 0.03377566C 
15 0.02184905C 
16 0.20893129C 
17 -0.1702919OA
18 -0.3151526OA
19 0.18796025C 
20 -0.3656063OA
21 0.14763662C 
22 -0.3834873OA
23 0.18070921C 
24 -0.1836403OA
25 -0.0632983OA


$$$$
