
     RDKit          3D

 24 25  0  0  0  0  0  0  0  0999 V2000
    1.6585    2.5364    0.4938 C   0  0  0  0  0  0  0  0  0  0  0  0
    2.1365    1.4745   -0.4759 C   0  0  1  0  0  0  0  0  0  0  0  0
    3.6397    1.5633   -0.5050 C   0  0  0  0  0  0  0  0  0  0  0  0
    4.3259    0.2467   -0.2960 C   0  0  2  0  0  0  0  0  0  0  0  0
    4.1686   -0.5609   -1.4296 O   0  0  0  0  0  0  0  0  0  0  0  0
    3.8766   -0.4767    0.9434 C   0  0  2  0  0  0  0  0  0  0  0  0
    4.0448   -1.8522    0.7301 O   0  0  0  0  0  0  0  0  0  0  0  0
    2.4236   -0.1958    1.2614 C   0  0  1  0  0  0  0  0  0  0  0  0
    2.3234    0.9831    2.0167 O   0  0  0  0  0  0  0  0  0  0  0  0
    1.7419    0.0867   -0.0721 C   0  0  1  0  0  0  0  0  0  0  0  0
    0.3353   -0.0996    0.1255 N   0  0  0  0  0  0  0  0  0  0  0  0
   -0.4431   -0.0891   -1.0849 C   0  0  1  0  0  0  0  0  0  0  0  0
   -0.8645   -1.5092   -1.4458 C   0  0  0  0  0  0  0  0  0  0  0  0
   -1.3185   -2.1964   -0.3209 O   0  0  0  0  0  0  0  0  0  0  0  0
   -2.5628   -2.7728   -0.5054 C   0  0  0  0  0  0  0  0  0  0  0  0
   -3.5866   -2.3020    0.5021 C   0  0  0  0  0  0  0  0  0  0  0  0
   -4.3514   -1.2800   -0.0823 O   0  0  0  0  0  0  0  0  0  0  0  0
   -3.8634   -0.0436    0.3689 C   0  0  2  0  0  0  0  0  0  0  0  0
   -4.2462    0.9729   -0.5196 O   0  0  0  0  0  0  0  0  0  0  0  0
   -2.3636   -0.1583    0.3935 C   0  0  2  0  0  0  0  0  0  0  0  0
   -1.8262    0.2793    1.6034 O   0  0  0  0  0  0  0  0  0  0  0  0
   -1.7409    0.6402   -0.7475 C   0  0  1  0  0  0  0  0  0  0  0  0
   -1.4269    1.8845   -0.2032 O   0  0  0  0  0  0  0  0  0  0  0  0
   -2.0808    2.8690   -0.7522 O   0  0  0  0  0  0  0  0  0  0  0  0
  2  1  1  1
  2  3  1  0
  3  4  1  0
  4  5  1  6
  4  6  1  0
  6  7  1  6
  6  8  1  0
  8  9  1  1
  8 10  1  0
 10 11  1  1
 12 11  1  1
 12 13  1  0
 13 14  1  0
 14 15  1  0
 15 16  1  0
 16 17  1  0
 17 18  1  0
 18 19  1  6
 18 20  1  0
 20 21  1  1
 20 22  1  0
 22 23  1  1
 23 24  1  0
 10  2  1  0
 22 12  1  0
M  END
>  <fragInfo>  (1) 
12 13 14 15 16 17 18 19 20 21 22
1 2 3 4 5 6 7 8 9 10
11
23 24


>  <torsionInfo>  (1) 
11 12 2 0
22 23 0 3
10 11 1 2


>  <atomInfo>  (1) 
1  -0.0608233C 
2  -0.0236264C 
3  -0.0201755C 
4  0.08280077C 
5  -0.3903155OA
6  0.10722524C 
7  -0.3876533OA
8  0.09793125C 
9  -0.3886791OA
10 0.03851327C 
11 -0.3035977NA
12 0.06312917C 
13 0.06481630C 
14 -0.3773303OA
15 0.07020270C 
16 0.07329266C 
17 -0.3476786OA
18 0.18319507C 
19 -0.3657402OA
20 0.13547353C 
21 -0.3848933OA
22 0.14089947C 
23 -0.2313774OA
24 -0.2513772OA


$$$$
