
     RDKit          2D

 81 82  0  0  0  0  0  0  0  0999 V2000
   -3.0000   -5.1962    0.0000 C   0  0  0  0  0  0  0  0  0  0  0  0
   -1.5000   -5.1962    0.0000 C   0  0  0  0  0  0  0  0  0  0  0  0
   -0.7500   -6.4952    0.0000 C   0  0  0  0  0  0  0  0  0  0  0  0
   -0.7500   -3.8971    0.0000 C   0  0  0  0  0  0  0  0  0  0  0  0
    0.7500   -3.8971    0.0000 C   0  0  0  0  0  0  0  0  0  0  0  0
    1.5000   -5.1962    0.0000 C   0  0  0  0  0  0  0  0  0  0  0  0
    0.7500   -6.4952    0.0000 C   0  0  0  0  0  0  0  0  0  0  0  0
    1.5000   -7.7942    0.0000 C   0  0  0  0  0  0  0  0  0  0  0  0
    3.0000   -7.7942    0.0000 O   0  0  0  0  0  0  0  0  0  0  0  0
    0.7500   -9.0933    0.0000 C   0  0  0  0  0  0  0  0  0  0  0  0
    1.5000  -10.3923    0.0000 C   0  0  0  0  0  0  0  0  0  0  0  0
    3.0000  -10.3923    0.0000 O   0  0  0  0  0  0  0  0  0  0  0  0
    0.7500  -11.6913    0.0000 C   0  0  0  0  0  0  0  0  0  0  0  0
    1.5000  -12.9904    0.0000 C   0  0  0  0  0  0  0  0  0  0  0  0
    3.0000  -12.9904    0.0000 O   0  0  0  0  0  0  0  0  0  0  0  0
    0.7500  -14.2894    0.0000 O   0  0  0  0  0  0  0  0  0  0  0  0
    1.5000   -2.5981    0.0000 C   0  0  0  0  0  0  0  0  0  0  0  0
    0.7500   -1.2990    0.0000 C   0  0  0  0  0  0  0  0  0  0  0  0
    1.5000    0.0000    0.0000 C   0  0  0  0  0  0  0  0  0  0  0  0
    0.7500    1.2990    0.0000 C   0  0  0  0  0  0  0  0  0  0  0  0
   -0.7500    1.2990    0.0000 C   0  0  0  0  0  0  0  0  0  0  0  0
   -1.5000    2.5981    0.0000 F   0  0  0  0  0  0  0  0  0  0  0  0
   -1.5000    0.0000    0.0000 C   0  0  0  0  0  0  0  0  0  0  0  0
   -0.7500   -1.2990    0.0000 C   0  0  0  0  0  0  0  0  0  0  0  0
    3.0000   -2.5981    0.0000 C   0  0  0  0  0  0  0  0  0  0  0  0
    3.7500   -3.8971    0.0000 N   0  0  0  0  0  0  0  0  0  0  0  0
    5.2500   -3.8971    0.0000 C   0  0  0  0  0  0  0  0  0  0  0  0
    6.0000   -5.1962    0.0000 C   0  0  0  0  0  0  0  0  0  0  0  0
    5.2500   -6.4952    0.0000 S   0  0  0  0  0  0  0  0  0  0  0  0
    3.8011   -6.8834    0.0000 C   0  0  0  0  0  0  0  0  0  0  0  0
    4.1893   -8.3323    0.0000 C   0  0  0  0  0  0  0  0  0  0  0  0
    5.6382   -7.9441    0.0000 C   0  0  0  0  0  0  0  0  0  0  0  0
    6.9373   -8.6941    0.0000 C   0  0  0  0  0  0  0  0  0  0  0  0
    6.9373  -10.1941    0.0000 C   0  0  0  0  0  0  0  0  0  0  0  0
    8.2363  -10.9441    0.0000 C   0  0  0  0  0  0  0  0  0  0  0  0
    9.5353  -10.1941    0.0000 O   0  0  0  0  0  0  0  0  0  0  0  0
    8.2363  -12.4441    0.0000 C   0  0  0  0  0  0  0  0  0  0  0  0
    7.5000   -5.1962    0.0000 C   0  0  0  0  0  0  0  0  0  0  0  0
    8.2500   -6.4952    0.0000 C   0  0  0  0  0  0  0  0  0  0  0  0
    9.7500   -6.4952    0.0000 C   0  0  0  0  0  0  0  0  0  0  0  0
   10.5000   -7.7942    0.0000 N   0  0  0  0  0  0  0  0  0  0  0  0
   12.0000   -7.7942    0.0000 C   0  0  0  0  0  0  0  0  0  0  0  0
   12.7500   -6.4952    0.0000 O   0  0  0  0  0  0  0  0  0  0  0  0
   12.7500   -9.0933    0.0000 C   0  0  0  0  0  0  0  0  0  0  0  0
   14.2500   -9.0933    0.0000 C   0  0  0  0  0  0  0  0  0  0  0  0
   15.0000  -10.3923    0.0000 O   0  0  0  0  0  0  0  0  0  0  0  0
   16.5000  -10.3923    0.0000 C   0  0  0  0  0  0  0  0  0  0  0  0
   17.2500  -11.6913    0.0000 C   0  0  0  0  0  0  0  0  0  0  0  0
   18.7500  -11.6913    0.0000 C   0  0  0  0  0  0  0  0  0  0  0  0
   16.5000  -12.9904    0.0000 C   0  0  0  0  0  0  0  0  0  0  0  0
   17.2500  -14.2894    0.0000 C   0  0  0  0  0  0  0  0  0  0  0  0
   16.5000  -15.5885    0.0000 C   0  0  0  0  0  0  0  0  0  0  0  0
   17.2500  -16.8875    0.0000 C   0  0  0  0  0  0  0  0  0  0  0  0
   16.5000  -18.1865    0.0000 O   0  0  0  0  0  0  0  0  0  0  0  0
   18.7500  -16.8875    0.0000 O   0  0  0  0  0  0  0  0  0  0  0  0
   19.5000  -18.1865    0.0000 C   0  0  0  0  0  0  0  0  0  0  0  0
   21.0000  -18.1865    0.0000 C   0  0  0  0  0  0  0  0  0  0  0  0
   21.7500  -19.4856    0.0000 O   0  0  0  0  0  0  0  0  0  0  0  0
   23.2500  -19.4856    0.0000 C   0  0  0  0  0  0  0  0  0  0  0  0
   24.0000  -20.7846    0.0000 C   0  0  0  0  0  0  0  0  0  0  0  0
   25.5000  -20.7846    0.0000 C   0  0  0  0  0  0  0  0  0  0  0  0
   26.2500  -22.0836    0.0000 C   0  0  0  0  0  0  0  0  0  0  0  0
   25.5000  -23.3827    0.0000 O   0  0  0  0  0  0  0  0  0  0  0  0
   27.7500  -22.0836    0.0000 C   0  0  0  0  0  0  0  0  0  0  0  0
   28.5000  -23.3827    0.0000 C   0  0  0  0  0  0  0  0  0  0  0  0
   30.0000  -23.3827    0.0000 C   0  0  0  0  0  0  0  0  0  0  0  0
   30.7500  -24.6817    0.0000 O   0  0  0  0  0  0  0  0  0  0  0  0
   30.7500  -22.0836    0.0000 O   0  0  0  0  0  0  0  0  0  0  0  0
   32.2500  -22.0836    0.0000 N   0  0  0  0  0  0  0  0  0  0  0  0
   33.0000  -20.7846    0.0000 C   0  0  0  0  0  0  0  0  0  0  0  0
   34.5000  -20.7846    0.0000 C   0  0  0  0  0  3  0  0  0  0  0  0
   35.2500  -19.4856    0.0000 O   0  0  0  0  0  0  0  0  0  0  0  0
   36.7500  -19.4856    0.0000 C   0  0  0  0  0  0  0  0  0  0  0  0
   37.5000  -18.1865    0.0000 O   0  0  0  0  0  0  0  0  0  0  0  0
   39.0000  -18.1865    0.0000 C   0  0  0  0  0  0  0  0  0  0  0  0
   39.7500  -16.8875    0.0000 C   0  0  0  0  0  0  0  0  0  0  0  0
   41.2500  -16.8875    0.0000 C   0  0  0  0  0  0  0  0  0  0  0  0
   42.0000  -15.5885    0.0000 N   0  0  0  0  0  0  0  0  0  0  0  0
   43.5000  -15.5885    0.0000 C   0  0  0  0  0  0  0  0  0  0  0  0
   44.2500  -14.2894    0.0000 N   0  0  0  0  0  0  0  0  0  0  0  0
   45.7500  -14.2894    0.0000 O   0  0  0  0  0  0  0  0  0  0  0  0
  1  2  1  0
  2  3  1  0
  2  4  1  0
  4  5  2  3
  5  6  1  0
  6  7  2  3
  7  8  1  0
  8  9  1  1
  8 10  1  0
 10 11  1  0
 11 12  1  1
 11 13  1  0
 13 14  1  0
 14 15  2  0
 14 16  1  0
  5 17  1  0
 17 18  1  0
 18 19  2  0
 19 20  1  0
 20 21  2  0
 21 22  1  0
 21 23  1  0
 23 24  2  0
 17 25  2  3
 25 26  1  0
 26 27  1  0
 27 28  2  3
 28 29  1  0
 29 30  1  0
 30 31  1  0
 31 32  2  0
 32 33  1  0
 33 34  1  0
 34 35  2  3
 35 36  1  0
 35 37  1  0
 28 38  1  0
 38 39  1  0
 39 40  2  3
 40 41  1  0
 41 42  1  0
 42 43  1  0
 42 44  1  0
 44 45  1  0
 45 46  1  0
 46 47  1  0
 47 48  1  0
 48 49  1  0
 48 50  1  0
 50 51  2  3
 51 52  1  0
 52 53  1  0
 53 54  1  0
 53 55  1  0
 55 56  1  0
 56 57  2  3
 57 58  1  0
 58 59  1  0
 59 60  1  0
 60 61  1  0
 61 62  2  3
 62 63  1  0
 62 64  1  0
 64 65  1  0
 65 66  1  0
 66 67  1  0
 66 68  1  0
 68 69  1  0
 69 70  1  0
 70 71  1  0
 71 72  1  0
 72 73  1  0
 73 74  1  0
 74 75  1  0
 75 76  1  0
 76 77  2  3
 77 78  1  0
 78 79  2  3
 79 80  1  0
 80 81  1  0
 24 18  1  0
 32 29  1  0
M  RAD  1  71   2
M  END
>  <fragInfo>  (1) 
18 19 20 21 22 23 24
1 2 3
4 5
6 7
8 9
10
11 12
13
14 15 16
17 25
26
27 28
29 30 31 32
33
34 35 36 37
38
39 40
41
42 43
44
45
46
47
48 49
50 51
52
53 54
55
56 57
58
59
60
61 62 63
64
65
66 67
68
69
70
71
72
73
74
75
76 77
78 79
80 81


>  <torsionInfo>  (1) 
17 18 9 0
2 4 1 2
5 6 2 3
5 17 2 9
7 8 3 4
8 10 4 5
10 11 5 6
11 13 6 7
13 14 7 8
25 26 9 10
26 27 10 11
28 29 11 12
28 38 11 15
32 33 12 13
33 34 13 14
38 39 15 16
40 41 16 17
41 42 17 18
42 44 18 19
44 45 19 20
45 46 20 21
46 47 21 22
47 48 22 23
48 50 23 24
51 52 24 25
52 53 25 26
53 55 26 27
55 56 27 28
57 58 28 29
58 59 29 30
59 60 30 31
60 61 31 32
62 64 32 33
64 65 33 34
65 66 34 35
66 68 35 36
68 69 36 37
69 70 37 38
70 71 38 39
71 72 39 40
72 73 40 41
73 74 41 42
74 75 42 43
75 76 43 44
77 78 44 45
79 80 45 46


>  <atomInfo>  (1) 
1  -0.0592423C 
2  -0.0281200C 
3  -0.0592423C 
4  -0.0740269C 
5  -0.0202979C 
6  -0.0560673C 
7  -0.0555041C 
8  0.07484806C 
9  -0.3889349OA
10 0.00343695C 
11 0.06723254C 
12 -0.3924102OA
13 0.07143600C 
14 0.30547265C 
15 -0.2523709OA
16 -0.4811594OA
17 0.00457396C 
18 -0.0161438A 
19 -0.0513980A 
20 -0.0257054A 
21 0.12275075A 
22 -0.2070117F 
23 -0.0257054A 
24 -0.0513980A 
25 0.00897572C 
26 -0.3663603N 
27 0.00897740C 
28 -0.0111610C 
29 -0.2021361S 
30 0.00114095C 
31 -0.0672648C 
32 -0.0303262C 
33 -0.0018338C 
34 -0.0423046C 
35 0.08550243C 
36 -0.5129429OA
37 -0.0073835C 
38 -0.0019483C 
39 -0.0637898C 
40 -0.0052061C 
41 -0.3666233N 
42 0.12574666C 
43 -0.3737525OA
44 0.01536856C 
45 0.05086512C 
46 -0.3806743OA
47 0.05256642C 
48 -0.0026476C 
49 -0.0567934C 
50 -0.0831701C 
51 -0.0820193C 
52 0.02783830C 
53 0.19961721C 
54 -0.3583950OA
55 -0.4692317OA
56 0.12090583C 
57 0.11746617C 
58 -0.4976768OA
59 0.09103073C 
60 0.00296483C 
61 -0.0434809C 
62 0.08855987C 
63 -0.5126546OA
64 0.00922009C 
65 0.00695215C 
66 0.17437394C 
67 -0.3664612OA
68 -0.2701727OA
69 -0.1967947NA
70 0.05016069C 
71 0.10265869C 
72 -0.3480002OA
73 0.14721638C 
74 -0.3512935OA
75 0.06935084C 
76 -0.0404292C 
77 0.02689136C 
78 -0.2453677NA
79 0.11195957C 
80 -0.2588307N 
81 -0.2901991OA


$$$$
