
     RDKit          3D

 77 79  0  0  0  0  0  0  0  0999 V2000
   -9.2339    0.3869    0.4275 C   0  0  0  0  0  0  0  0  0  0  0  0
   -8.6356   -0.6291   -0.1081 C   0  0  0  0  0  0  0  0  0  0  0  0
   -8.5537   -0.6874   -1.5913 C   0  0  0  0  0  0  0  0  0  0  0  0
   -8.0696   -1.6697    0.7784 C   0  0  0  0  0  0  0  0  0  0  0  0
   -7.0397   -2.5299    0.0469 C   0  0  0  0  0  3  0  0  0  0  0  0
   -7.6152   -3.9065   -0.0756 C   0  0  1  0  0  0  0  0  0  0  0  0
   -8.1123   -4.2220   -1.4633 C   0  0  1  0  0  0  0  0  0  0  0  0
   -7.1888   -5.2664   -2.0560 C   0  0  0  0  0  0  0  0  0  0  0  0
   -9.4993   -4.8187   -1.3295 C   0  0  0  0  0  0  0  0  0  0  0  0
  -10.2361   -4.2681   -0.1345 C   0  0  0  0  0  0  0  0  0  0  0  0
  -11.2915   -5.2681    0.3240 C   0  0  0  0  0  0  0  0  0  0  0  0
  -10.5388   -6.4303    0.9565 C   0  0  0  0  0  3  0  0  0  0  0  0
   -9.4213   -6.7945    0.0072 C   0  0  0  0  0  3  0  0  0  0  0  0
   -8.1237   -7.0685    0.7133 C   0  0  0  0  0  0  0  0  0  0  0  0
   -7.5720   -5.8413    1.4158 C   0  0  0  0  0  3  0  0  0  0  0  0
   -6.7443   -4.9808    0.4908 C   0  0  2  0  0  0  0  0  0  0  0  0
   -5.4879   -4.4730    1.1188 C   0  0  0  0  0  0  0  0  0  0  0  0
   -4.5254   -5.6045    1.3513 C   0  0  0  0  0  3  0  0  0  0  0  0
   -4.4341   -6.5645    0.2084 C   0  0  0  0  0  3  0  0  0  0  0  0
   -2.9749   -6.7038   -0.2291 C   0  0  1  0  0  0  0  0  0  0  0  0
   -2.8254   -7.7067   -1.3339 C   0  0  0  0  0  0  0  0  0  0  0  0
   -2.5487   -5.3274   -0.7086 C   0  0  0  0  0  0  0  0  0  0  0  0
   -1.2274   -4.9201   -0.0947 C   0  0  0  0  0  0  0  0  0  0  0  0
   -0.1392   -5.7178   -0.7739 C   0  0  0  0  0  0  0  0  0  0  0  0
    0.9203   -6.0653    0.2547 C   0  0  0  0  0  3  0  0  0  0  0  0
    1.3769   -7.4841   -0.0182 C   0  0  2  0  0  0  0  0  0  0  0  0
    0.3730   -8.5037    0.4442 C   0  0  0  0  0  2  0  0  0  0  0  0
    2.7588   -7.7481    0.5038 C   0  0  0  0  0  0  0  0  0  0  0  0
    3.6370   -8.2443   -0.6044 C   0  0  0  0  0  3  0  0  0  0  0  0
    4.8820   -7.3757   -0.7143 C   0  0  0  0  0  0  0  0  0  0  0  0
    5.3186   -6.9821    0.6703 C   0  0  0  0  0  0  0  0  0  0  0  0
    6.2738   -5.7939    0.5433 C   0  0  0  0  0  0  0  0  0  0  0  0
    5.4657   -4.6328    0.0307 C   0  0  0  0  0  0  0  0  0  0  0  0
    6.3018   -3.3892    0.0696 C   0  0  0  0  0  3  0  0  0  0  0  0
    7.7726   -3.7254    0.3277 C   0  0  0  0  0  0  0  0  0  0  0  0
    8.5709   -2.4935    0.0527 C   0  0  2  0  0  0  0  0  0  0  0  0
   10.0495   -2.6998    0.0638 C   0  0  0  0  0  0  0  0  0  0  0  0
   10.4293   -3.6992   -0.9784 C   0  0  2  0  0  0  0  0  0  0  0  0
    9.8409   -5.0551   -0.8541 C   0  0  0  0  0  0  0  0  0  0  0  0
   11.3571   -4.8059   -0.7457 C   0  0  2  0  0  0  0  0  0  0  0  0
   11.9533   -5.1247    0.5855 C   0  0  0  0  0  3  0  0  0  0  0  0
   12.7610   -3.9863    1.1287 C   0  0  0  0  0  0  0  0  0  0  0  0
   13.9177   -3.6002    0.2256 C   0  0  0  0  0  3  0  0  0  0  0  0
   13.4406   -3.1716   -1.1483 C   0  0  0  0  0  0  0  0  0  0  0  0
    8.1067   -1.2768    0.7812 C   0  0  0  0  0  0  0  0  0  0  0  0
    9.1908   -0.2633    1.0220 C   0  0  0  0  0  3  0  0  0  0  0  0
    9.2239    0.6876   -0.1556 C   0  0  0  0  0  3  0  0  0  0  0  0
    8.4323    1.9470    0.0988 C   0  0  0  0  0  0  0  0  0  0  0  0
    9.3625    3.1170   -0.1614 C   0  0  0  0  0  3  0  0  0  0  0  0
    8.6288    4.4229   -0.2729 C   0  0  0  0  0  3  0  0  0  0  0  0
    9.3906    5.4581    0.5314 C   0  0  0  0  0  3  0  0  0  0  0  0
    9.3805    6.7796   -0.2112 C   0  0  0  0  0  3  0  0  0  0  0  0
    8.6094    7.7956    0.6036 C   0  0  0  0  0  3  0  0  0  0  0  0
    8.1744    8.9092   -0.3291 C   0  0  0  0  0  0  0  0  0  0  0  0
    6.6994    9.1354   -0.1332 C   0  0  0  0  0  0  0  0  0  0  0  0
    6.3720   10.6051    0.0357 C   0  0  1  0  0  0  0  0  0  0  0  0
    6.3317   11.1983   -1.3762 C   0  0  0  0  0  2  0  0  0  0  0  0
    4.9285   10.6618    0.5410 C   0  0  0  0  0  3  0  0  0  0  0  0
    4.1298    9.7581   -0.3982 C   0  0  0  0  0  3  0  0  0  0  0  0
    3.0233    9.0439    0.3274 C   0  0  0  0  0  3  0  0  0  0  0  0
    1.7164    9.7515   -0.0450 C   0  0  0  0  0  0  0  0  0  0  0  0
    0.6308    9.0850    0.7702 C   0  0  0  0  0  3  0  0  0  0  0  0
   -0.4767    8.7068   -0.2169 C   0  0  0  0  0  3  0  0  0  0  0  0
   -1.6497    9.6132    0.1069 C   0  0  0  0  0  3  0  0  0  0  0  0
   -2.8134    8.6977    0.4674 C   0  0  0  0  0  3  0  0  0  0  0  0
   -3.9664    9.1046   -0.4376 C   0  0  0  0  0  0  0  0  0  0  0  0
   -4.8878    7.9193   -0.6352 C   0  0  0  0  0  3  0  0  0  0  0  0
   -6.2883    8.4863   -0.8226 C   0  0  0  0  0  0  0  0  0  0  0  0
   -7.2977    7.4282   -0.4677 C   0  0  0  0  0  0  0  0  0  0  0  0
   -8.6685    7.9833   -0.7742 C   0  0  0  0  0  0  0  0  0  0  0  0
   -9.7211    7.1648   -0.0738 C   0  0  0  0  0  3  0  0  0  0  0  0
   -9.3346    5.7039   -0.1922 C   0  0  0  0  0  3  0  0  0  0  0  0
  -10.5519    4.8170   -0.1224 C   0  0  2  0  0  0  0  0  0  0  0  0
  -11.7593    5.6095    0.3164 C   0  0  0  0  0  2  0  0  0  0  0  0
  -10.2821    3.6438    0.8027 C   0  0  0  0  0  0  0  0  0  0  0  0
  -10.5995    2.3640    0.0644 C   0  0  0  0  0  3  0  0  0  0  0  0
   -9.3970    1.5346   -0.1532 C   0  0  0  0  0  0  0  0  0  0  0  0
  1  2  2  0
  2  3  1  0
  2  4  1  0
  4  5  1  0
  6  5  1  6
  6  7  1  0
  7  8  1  1
  7  9  1  0
  9 10  1  0
 10 11  1  0
 11 12  1  0
 12 13  1  0
 13 14  1  0
 14 15  1  0
 16 15  1  1
 16 17  1  0
 17 18  1  0
 18 19  1  0
 19 20  1  0
 20 21  1  6
 20 22  1  0
 22 23  1  0
 23 24  1  0
 24 25  1  0
 25 26  1  0
 26 27  1  1
 26 28  1  0
 28 29  1  0
 29 30  1  0
 30 31  1  0
 31 32  1  0
 32 33  1  0
 33 34  1  0
 34 35  1  0
 35 36  1  0
 36 37  1  1
 38 37  1  1
 38 39  1  0
 38 40  1  0
 40 41  1  1
 41 42  1  0
 42 43  1  0
 43 44  1  0
 36 45  1  0
 45 46  1  0
 46 47  1  0
 47 48  1  0
 48 49  1  0
 49 50  1  0
 50 51  1  0
 51 52  1  0
 52 53  1  0
 53 54  1  0
 54 55  1  0
 55 56  1  0
 56 57  1  6
 56 58  1  0
 58 59  1  0
 59 60  1  0
 60 61  1  0
 61 62  1  0
 62 63  1  0
 63 64  1  0
 64 65  1  0
 65 66  1  0
 66 67  1  0
 67 68  1  0
 68 69  1  0
 69 70  1  0
 70 71  1  0
 71 72  1  0
 72 73  1  0
 73 74  1  1
 73 75  1  0
 75 76  1  0
 76 77  1  0
  1 77  2  0
 16  6  1  0
 40 39  1  0
M  RAD  8   5   2  12   2  13   2  15   2  18   2  19   2  25   2  27   3
M  RAD  8  29   2  34   2  41   2  43   2  46   2  47   2  49   2  50   2
M  RAD  8  51   2  52   2  53   2  57   3  58   2  59   2  60   2  62   2
M  RAD  8  63   2  64   2  65   2  67   2  71   2  72   2  74   3  76   2
M  END
>  <fragInfo>  (1) 
1 2 3 4 5 6 7 8 9 10 11 12 13 14 15 16 17 18 19 20 21 22 23 24 25 26 27 28 29 30 31 32 33 34 35 36 45 46 47 48 49 50 51 52 53 54 55 56 57 58 59 60 61 62 63 64 65 66 67 68 69 70 71 72 73 74 75 76 77
37
38 39 40
41
42
43 44


>  <torsionInfo>  (1) 
36 37 0 1
37 38 1 2
40 41 2 3
41 42 3 4
42 43 4 5


>  <atomInfo>  (1) 
1  -0.1260599C 
2  -0.0314492C 
3  -0.0362587C 
4  -0.0212579C 
5  -0.0302695C 
6  -0.0322630C 
7  -0.0408732C 
8  -0.0622236C 
9  -0.0504152C 
10 -0.0527571C 
11 -0.0498870C 
12 -0.0351812C 
13 -0.0348977C 
14 -0.0464891C 
15 -0.0348765C 
16 -0.0346312C 
17 -0.0464687C 
18 -0.0346229C 
19 -0.0323481C 
20 -0.0408749C 
21 -0.0622236C 
22 -0.0504153C 
23 -0.0527571C 
24 -0.0498868C 
25 -0.0351706C 
26 -0.0346226C 
27 -0.0314941C 
28 -0.0467645C 
29 -0.0382897C 
30 -0.0501721C 
31 -0.0530214C 
32 -0.0530214C 
33 -0.0501725C 
34 -0.0383106C 
35 -0.0473047C 
36 -0.0405968C 
37 -0.0472837C 
38 -0.0377516C 
39 -0.0467646C 
40 -0.0351619C 
41 -0.0349186C 
42 -0.0470490C 
43 -0.0414035C 
44 -0.0622441C 
45 -0.0470190C 
46 -0.0349075C 
47 -0.0348869C 
48 -0.0464783C 
49 -0.0345905C 
50 -0.0314828C 
51 -0.0312086C 
52 -0.0314935C 
53 -0.0348745C 
54 -0.0496014C 
55 -0.0495910C 
56 -0.0345895C 
57 -0.0314935C 
58 -0.0314935C 
59 -0.0314936C 
60 -0.0345905C 
61 -0.0464675C 
62 -0.0345905C 
63 -0.0314936C 
64 -0.0314938C 
65 -0.0346015C 
66 -0.0467641C 
67 -0.0382895C 
68 -0.0501618C 
69 -0.0527470C 
70 -0.0498762C 
71 -0.0348956C 
72 -0.0317674C 
73 -0.0340073C 
74 -0.0314711C 
75 -0.0423342C 
76 -0.0085448C 
77 -0.0386682C 


$$$$
