
     RDKit          2D

 51 53  0  0  0  0  0  0  0  0999 V2000
   13.9735   22.6165    0.0000 C   0  0  0  0  0  0  0  0  0  0  0  0
   15.3830   22.1035    0.0000 C   0  0  0  0  0  0  0  0  0  0  0  0
   16.5321   23.0676    0.0000 C   0  0  0  0  0  0  0  0  0  0  0  0
   17.9416   22.5546    0.0000 C   0  0  0  0  0  0  0  0  0  0  0  0
   19.0907   23.5188    0.0000 O   0  0  0  0  0  0  0  0  0  0  0  0
   18.2021   21.0774    0.0000 C   0  0  0  0  0  0  0  0  0  0  0  0
   19.6116   20.5644    0.0000 O   0  0  0  0  0  0  0  0  0  0  0  0
   17.0530   20.1132    0.0000 C   0  0  0  0  0  0  0  0  0  0  0  0
   17.3135   18.6360    0.0000 O   0  0  0  0  0  0  0  0  0  0  0  0
   15.6435   20.6262    0.0000 C   0  0  0  0  0  0  0  0  0  0  0  0
   14.4944   19.6621    0.0000 N   0  0  0  0  0  0  0  0  0  0  0  0
   14.7549   18.1849    0.0000 C   0  0  0  0  0  3  0  0  0  0  0  0
   13.6058   17.2207    0.0000 C   0  0  0  0  0  0  0  0  0  0  0  0
   13.8663   15.7435    0.0000 C   0  0  0  0  0  0  0  0  0  0  0  0
   15.2758   15.2304    0.0000 O   0  0  0  0  0  0  0  0  0  0  0  0
   12.7172   14.7793    0.0000 C   0  0  0  0  0  0  0  0  0  0  0  0
   11.3077   15.2923    0.0000 O   0  0  0  0  0  0  0  0  0  0  0  0
   12.9777   13.3021    0.0000 C   0  0  0  0  0  0  0  0  0  0  0  0
   14.3872   12.7890    0.0000 O   0  0  0  0  0  0  0  0  0  0  0  0
   11.8286   12.3379    0.0000 C   0  0  0  0  0  0  0  0  0  0  0  0
   10.4191   12.8509    0.0000 O   0  0  0  0  0  0  0  0  0  0  0  0
   12.0891   10.8607    0.0000 C   0  0  0  0  0  0  0  0  0  0  0  0
   13.4986   10.3476    0.0000 O   0  0  0  0  0  0  0  0  0  0  0  0
   10.9400    9.8965    0.0000 O   0  0  0  0  0  0  0  0  0  0  0  0
   11.2005    8.4193    0.0000 C   0  0  0  0  0  3  0  0  0  0  0  0
   10.0514    7.4551    0.0000 C   0  0  0  0  0  0  0  0  0  0  0  0
    8.6419    7.9681    0.0000 O   0  0  0  0  0  0  0  0  0  0  0  0
   10.3119    5.9779    0.0000 C   0  0  0  0  0  3  0  0  0  0  0  0
    9.1628    5.0137    0.0000 O   0  0  0  0  0  0  0  0  0  0  0  0
    9.4233    3.5365    0.0000 C   0  0  0  0  0  0  0  0  0  0  0  0
   10.8329    3.0235    0.0000 C   0  0  0  0  0  2  0  0  0  0  0  0
    8.2742    2.5723    0.0000 C   0  0  0  0  0  0  0  0  0  0  0  0
    6.8647    3.0853    0.0000 C   0  0  0  0  0  0  0  0  0  0  0  0
    5.7156    2.1212    0.0000 C   0  0  0  0  0  0  0  0  0  0  0  0
    5.2026    0.7116    0.0000 O   0  0  0  0  0  0  0  0  0  0  0  0
    4.2384    1.8607    0.0000 C   0  0  0  0  0  0  0  0  0  0  0  0
    2.8289    2.3737    0.0000 C   0  0  0  0  0  0  0  0  0  0  0  0
    2.5684    3.8509    0.0000 O   0  0  0  0  0  0  0  0  0  0  0  0
    1.6798    1.4095    0.0000 C   0  0  0  0  0  0  0  0  0  0  0  0
    2.1929    0.0000    0.0000 C   0  0  0  0  0  0  0  0  0  0  0  0
    1.6798   -1.4095    0.0000 C   0  0  0  0  0  0  0  0  0  0  0  0
    0.3808   -2.1595    0.0000 O   0  0  0  0  0  0  0  0  0  0  0  0
   -1.0964   -1.8991    0.0000 C   0  0  0  0  0  0  0  0  0  0  0  0
   -1.8464   -3.1981    0.0000 O   0  0  0  0  0  0  0  0  0  0  0  0
   -2.0606   -0.7500    0.0000 C   0  0  0  0  0  0  0  0  0  0  0  0
   -2.0606    0.7500    0.0000 O   0  0  0  0  0  0  0  0  0  0  0  0
   -1.0964    1.8991    0.0000 C   0  0  0  0  0  0  0  0  0  0  0  0
   -1.8464    3.1981    0.0000 O   0  0  0  0  0  0  0  0  0  0  0  0
    0.3808    2.1595    0.0000 C   0  0  0  0  0  0  0  0  0  0  0  0
    0.6413    3.6368    0.0000 O   0  0  0  0  0  0  0  0  0  0  0  0
   -0.5078    4.6009    0.0000 C   0  0  0  0  0  2  0  0  0  0  0  0
  2  1  1  1
  2  3  1  0
  3  4  1  0
  4  5  1  6
  4  6  1  0
  6  7  1  6
  6  8  1  0
  8  9  1  1
  8 10  1  0
 10 11  1  1
 11 12  1  0
 12 13  1  0
 13 14  1  0
 14 15  1  1
 14 16  1  0
 16 17  1  6
 16 18  1  0
 18 19  1  1
 18 20  1  0
 20 21  1  1
 20 22  1  0
 22 23  1  6
 22 24  1  0
 24 25  1  0
 25 26  1  0
 26 27  1  1
 26 28  1  0
 28 29  1  0
 29 30  1  0
 30 31  1  6
 30 32  1  0
 32 33  1  0
 33 34  1  0
 34 35  1  0
 34 36  1  0
 36 37  1  6
 37 38  1  0
 39 37  1  1
 39 40  1  0
 40 41  2  3
 41 42  1  0
 42 43  1  0
 43 44  1  6
 43 45  1  0
 45 46  1  0
 46 47  1  0
 47 48  1  1
 47 49  1  0
 49 50  1  1
 50 51  1  0
 10  2  1  0
 36 35  1  0
 49 39  1  0
M  RAD  5  12   2  25   2  28   2  31   3  51   3
M  END
>  <fragInfo>  (1) 
39 40 41 42 43 44 45 46 47 48 49
1 2 3 4 5 6 7 8 9 10
11
12
13
14 15
16 17
18 19
20 21
22 23
24
25
26 27
28
29
30 31
32
33
34 35 36
37 38
50 51


>  <torsionInfo>  (1) 
37 39 19 0
49 50 0 20
10 11 1 2
11 12 2 3
12 13 3 4
13 14 4 5
14 16 5 6
16 18 6 7
18 20 7 8
20 22 8 9
22 24 9 10
24 25 10 11
25 26 11 12
26 28 12 13
28 29 13 14
29 30 14 15
30 32 15 16
32 33 16 17
33 34 17 18
36 37 18 19


>  <atomInfo>  (1) 
1  -0.0608233C 
2  -0.0236285C 
3  -0.0201755C 
4  0.08280077C 
5  -0.3903155OA
6  0.10722522C 
7  -0.3876533OA
8  0.09792914C 
9  -0.3886791OA
10 0.03839079C 
11 -0.3066599NA
12 0.02511885C 
13 -0.0073297C 
14 0.08407230C 
15 -0.3902628OA
16 0.10848775C 
17 -0.3876059OA
18 0.11323051C 
19 -0.3873970OA
20 0.13305006C 
21 -0.3849928OA
22 0.18358856C 
23 -0.3657310OA
24 -0.3411560OA
25 0.11816071C 
26 0.11170681C 
27 -0.3874739OA
28 0.11515120C 
29 -0.3690425OA
30 0.06177784C 
31 -0.0036079C 
32 -0.0238460C 
33 -0.0215609C 
34 0.08696311C 
35 -0.3667438OA
36 0.11063210C 
37 0.09177308C 
38 -0.3895876OA
39 0.04005891C 
40 -0.0411052C 
41 0.08305417C 
42 -0.4705500OA
43 0.21977333C 
44 -0.3568855OA
45 0.11213134C 
46 -0.3436500OA
47 0.18159943C 
48 -0.3657908OA
49 0.11769842C 
50 -0.3633352OA
51 0.11574321C 


$$$$
