
     RDKit          3D

 20 19  0  0  0  0  0  0  0  0999 V2000
   -6.4119    1.4748   -0.6968 C   0  0  0  0  0  0  0  0  0  0  0  0
   -5.6396    0.4630    0.1120 C   0  0  0  0  0  0  0  0  0  0  0  0
   -6.5321   -0.6057    0.7061 C   0  0  0  0  0  0  0  0  0  0  0  0
   -4.6448   -0.2179   -0.8108 C   0  0  0  0  0  0  0  0  0  0  0  0
   -3.8255   -1.2530   -0.0735 C   0  0  0  0  0  0  0  0  0  0  0  0
   -3.0362   -0.6725    1.0540 C   0  0  0  0  0  0  0  0  0  0  0  0
   -2.0620    0.3821    0.5848 C   0  0  1  0  0  0  0  0  0  0  0  0
   -1.2636    0.9743    1.6984 C   0  0  0  0  0  0  0  0  0  0  0  0
   -1.1257   -0.1522   -0.4815 C   0  0  0  0  0  3  0  0  0  0  0  0
   -0.2018    0.9732   -0.8768 C   0  0  0  0  0  3  0  0  0  0  0  0
    0.6041    1.4985    0.2917 C   0  0  0  0  0  0  0  0  0  0  0  0
    1.4285    0.3728    0.8367 C   0  0  2  0  0  0  0  0  0  0  0  0
    2.2698    0.8222    2.0178 C   0  0  0  0  0  0  0  0  0  0  0  0
    2.3009   -0.2025   -0.2576 C   0  0  0  0  0  0  0  0  0  0  0  0
    3.2265    0.8654   -0.8025 C   0  0  1  0  0  0  0  0  0  0  0  0
    4.1256    1.4085    0.2950 C   0  0  0  0  0  0  0  0  0  0  0  0
    4.1353    0.2407   -1.8416 C   0  0  0  0  0  0  0  0  0  0  0  0
    4.8957   -0.8230   -1.1580 C   0  0  0  0  0  0  0  0  0  0  0  0
    5.5154   -1.7022   -0.6149 C   0  0  0  0  0  0  0  0  0  0  0  0
    6.2413   -2.6958    0.0176 O   0  0  0  0  0  0  0  0  0  0  0  0
  1  2  1  0
  2  3  1  0
  2  4  1  0
  4  5  1  0
  5  6  1  0
  6  7  1  0
  7  8  1  1
  7  9  1  0
  9 10  1  0
 10 11  1  0
 11 12  1  0
 12 13  1  1
 12 14  1  0
 14 15  1  0
 15 16  1  1
 15 17  1  0
 17 18  1  0
 18 19  3  0
 19 20  1  0
M  RAD  2   9   2  10   2
M  END
>  <fragInfo>  (1) 
17 18 19 20
1 2 3
4
5
6
7 8
9
10
11
12 13
14
15 16


>  <torsionInfo>  (1) 
15 17 11 0
2 4 1 2
4 5 2 3
5 6 3 4
6 7 4 5
7 9 5 6
9 10 6 7
10 11 7 8
11 12 8 9
12 14 9 10
14 15 10 11


>  <atomInfo>  (1) 
1  -0.0627736C 
2  -0.0471324C 
3  -0.0627736C 
4  -0.0509643C 
5  -0.0527981C 
6  -0.0504160C 
7  -0.0408749C 
8  -0.0622236C 
9  -0.0323486C 
10 -0.0346543C 
11 -0.0472824C 
12 -0.0437089C 
13 -0.0624886C 
14 -0.0471953C 
15 -0.0328979C 
16 -0.0615859C 
17 0.01487115C 
18 -0.0596781C 
19 0.10693646C 
20 -0.4620153OA


$$$$
