
     RDKit          3D

 12 12  0  0  0  0  0  0  0  0999 V2000
    0.6567   -0.5190    1.4055 C   0  0  0  0  0  0  0  0  0  0  0  0
   -0.0073   -1.6019    0.8462 O   0  0  0  0  0  0  0  0  0  0  0  0
   -0.8662   -1.2480   -0.1786 C   0  0  2  0  0  0  0  0  0  0  0  0
   -0.2599   -1.7025   -1.4928 C   0  0  0  0  0  0  0  0  0  0  0  0
   -1.1189    0.2326   -0.2134 C   0  0  0  0  0  0  0  0  0  0  0  0
   -2.4453    0.4328   -0.9583 C   0  0  0  0  0  0  0  0  0  0  0  0
   -1.2996    0.8148    1.1563 C   0  0  0  0  0  0  0  0  0  0  0  0
   -0.1388    0.8346   -0.9608 O   0  0  0  0  0  0  0  0  0  0  0  0
    0.9737    1.2262   -0.2630 C   0  0  2  0  0  0  0  0  0  0  0  0
    1.6511    0.0970    0.4601 C   0  0  2  0  0  0  0  0  0  0  0  0
    2.1454   -0.8409   -0.4275 O   0  0  0  0  0  1  0  0  0  0  0  0
    0.7091    2.2744    0.6263 O   0  0  0  0  0  0  0  0  0  0  0  0
  1  2  1  0
  2  3  1  0
  3  4  1  6
  3  5  1  0
  5  6  1  0
  5  7  1  0
  5  8  1  0
  8  9  1  0
  9 10  1  0
 10 11  1  6
  9 12  1  1
 10  1  1  0
M  CHG  1  11  -1
M  END
>  <fragInfo>  (1) 
1 2 3 4 5 6 7 8 9 10 11 12


>  <torsionInfo>  (1) 


>  <atomInfo>  (1) 
1  0.03935920C 
2  -0.3764511OA
3  0.08314361C 
4  -0.0358376C 
5  0.09147164C 
6  -0.0333900C 
7  -0.0333900C 
8  -0.3454259OA
9  0.14465177C 
10 -0.0495693C 
11 -0.8467248OA
12 -0.3689144OA


$$$$
