
     RDKit          3D

 29 30  0  0  0  0  0  0  0  0999 V2000
    6.4943   -0.0482    3.5929 C   0  0  0  0  0  0  0  0  0  0  0  0
    7.5297   -0.0680    2.6293 O   0  0  0  0  0  0  0  0  0  0  0  0
    6.9027   -0.5507    1.3621 C   0  0  0  0  0  3  0  0  0  0  0  0
    5.5298   -0.3830    1.7389 O   0  0  0  0  0  0  0  0  0  0  0  0
    4.8844    0.1370    0.5726 C   0  0  2  0  0  0  0  0  0  0  0  0
    4.5893    1.6030    1.2193 C   0  0  0  0  0  0  0  0  0  0  0  0
    3.4136   -0.4281    0.8537 C   0  0  0  0  0  3  0  0  0  0  0  0
    2.4002    0.1269   -0.0463 C   0  0  1  0  0  0  0  0  0  0  0  0
    2.7745   -0.1946   -1.4341 N   0  0  0  0  0  0  0  0  0  0  0  0
    2.6296   -1.6964   -1.4349 C   0  0  0  0  0  2  0  0  0  0  0  0
    0.9785    0.0699    0.3081 C   0  0  0  0  0  3  0  0  0  0  0  0
    0.0163    0.4430   -0.8117 C   0  0  2  0  0  0  0  0  0  0  0  0
   -1.3522    0.6098   -0.3532 C   0  0  0  0  0  0  0  0  0  0  0  0
   -1.6696    1.7391    0.2838 C   0  0  0  0  0  3  0  0  0  0  0  0
    0.0725   -0.8403   -1.7200 C   0  0  0  0  0  0  0  0  0  0  0  0
   -0.9718   -0.7437   -2.7704 C   0  0  0  0  0  3  0  0  0  0  0  0
   -0.9240    0.5198   -3.3643 O   0  0  0  0  0  0  0  0  0  0  0  0
   -2.1654    1.0112   -3.6724 C   0  0  0  0  0  3  0  0  0  0  0  0
   -3.5130   -0.0690   -3.1426 S   0  0  0  0  0  0  0  0  0  0  0  0
   -4.3678    0.7465   -1.7513 C   0  0  0  0  0  3  0  0  0  0  0  0
   -3.8103    0.1674   -0.4895 C   0  0  2  0  0  0  0  0  0  0  0  0
   -3.9389    1.0012    0.6074 O   0  0  0  0  0  0  0  0  0  0  0  0
   -2.3894   -0.3377   -0.7071 C   0  0  2  0  0  0  0  0  0  0  0  0
   -2.2243   -1.5751    0.1218 C   0  0  0  0  0  3  0  0  0  0  0  0
   -2.6641   -1.2851    1.5471 C   0  0  0  0  0  3  0  0  0  0  0  0
   -4.1534   -1.1498    1.6829 C   0  0  2  0  0  0  0  0  0  0  0  0
   -4.8708   -1.9928    0.6606 C   0  0  0  0  0  2  0  0  0  0  0  0
   -4.6277    0.2793    1.5915 C   0  0  1  0  0  0  0  0  0  0  0  0
   -4.5727    0.9727    2.9259 C   0  0  0  0  0  1  0  0  0  0  0  0
  1  2  1  0
  2  3  1  0
  3  4  1  0
  4  5  1  0
  5  6  1  1
  5  7  1  0
  8  7  1  1
  8  9  1  0
  9 10  1  0
  8 11  1  0
 12 11  1  1
 12 13  1  0
 13 14  2  0
 12 15  1  0
 15 16  1  0
 16 17  1  0
 17 18  1  0
 18 19  1  0
 19 20  1  0
 21 20  1  6
 21 22  1  0
 21 23  1  0
 23 24  1  1
 24 25  1  0
 25 26  1  0
 26 27  1  6
 26 28  1  0
 28 29  1  1
 23 13  1  0
 28 22  1  0
M  RAD  8   3   2   7   2  10   3  11   2  14   2  16   2  18   2  20   2
M  RAD  4  24   2  25   2  27   3  29   2
M  END
>  <fragInfo>  (1) 
12 13 14 15 16 17 18 19 20 21 22 23 24 25 26 27 28 29
1 2
3
4
5 6
7
8
9 10
11


>  <torsionInfo>  (1) 
11 12 8 0
2 3 1 2
3 4 2 3
4 5 3 4
5 7 4 5
7 8 5 6
8 9 6 7
8 11 6 8


>  <atomInfo>  (1) 
1  0.03885651C 
2  -0.3513313OA
3  0.20894130C 
4  -0.3445557OA
5  0.06278570C 
6  -0.0382023C 
7  0.00738517C 
8  0.01655119C 
9  -0.3073825NA
10 0.04095805C 
11 -0.0139762C 
12 -0.0123786C 
13 -0.0606361C 
14 -0.0624029C 
15 -0.0171482C 
16 0.08599185C 
17 -0.3579479OA
18 0.13923596C 
19 -0.1195425SA
20 0.04877207C 
21 0.07783000C 
22 -0.3721911OA
23 0.01122501C 
24 -0.0249942C 
25 -0.0284792C 
26 -0.0075202C 
27 -0.0288001C 
28 0.06896217C 
29 0.02529563C 


$$$$
