
     RDKit          3D

 24 25  0  0  0  0  0  0  0  0999 V2000
    2.2014   -1.0337   -2.1440 C   0  0  0  0  0  0  0  0  0  0  0  0
    2.5626   -1.7575   -0.8629 C   0  0  1  0  0  0  0  0  0  0  0  0
    3.9654   -1.4288   -0.4239 C   0  0  0  0  0  0  0  0  0  0  0  0
    4.1457    0.0643   -0.2503 C   0  0  2  0  0  0  0  0  0  0  0  0
    5.0415    0.3836    0.7563 O   0  0  0  0  0  0  0  0  0  0  0  0
    2.8495    0.7797    0.0085 C   0  0  2  0  0  0  0  0  0  0  0  0
    3.0727    1.9609    0.7323 O   0  0  0  0  0  0  0  0  0  0  0  0
    1.8846   -0.0501    0.8230 C   0  0  1  0  0  0  0  0  0  0  0  0
    0.8007    0.7110    1.1006 O   0  0  0  0  0  0  0  0  0  0  0  0
    1.6178   -1.3986    0.2466 C   0  0  1  0  0  0  0  0  0  0  0  0
    0.2839   -1.6782   -0.1151 N   0  0  0  0  0  0  0  0  0  0  0  0
   -0.6671   -0.5925   -0.0555 C   0  0  1  0  0  0  0  0  0  0  0  0
   -1.0409   -0.1457   -1.4361 C   0  0  0  0  0  0  0  0  0  0  0  0
   -2.0393    0.9788   -1.3757 C   0  0  0  0  0  3  0  0  0  0  0  0
   -3.3554    0.5578   -1.3656 O   0  0  0  0  0  0  0  0  0  0  0  0
   -1.7222    1.9535   -0.2797 C   0  0  1  0  0  0  0  0  0  0  0  0
   -2.5330    3.0718   -0.3999 O   0  0  0  0  0  0  0  0  0  0  0  0
   -1.8209    1.3624    1.0999 C   0  0  1  0  0  0  0  0  0  0  0  0
   -2.2627    2.2553    2.0547 O   0  0  0  0  0  0  0  0  0  0  0  0
   -2.6409    0.1126    1.1706 C   0  0  2  0  0  0  0  0  0  0  0  0
   -2.9196   -0.1434    2.5166 O   0  0  0  0  0  0  0  0  0  0  0  0
   -1.9273   -1.1271    0.6388 C   0  0  1  0  0  0  0  0  0  0  0  0
   -2.6685   -1.7807   -0.3557 O   0  0  0  0  0  0  0  0  0  0  0  0
   -2.8281   -3.0554   -0.0512 O   0  0  0  0  0  0  0  0  0  0  0  0
  2  1  1  6
  2  3  1  0
  3  4  1  0
  4  5  1  1
  4  6  1  0
  6  7  1  1
  6  8  1  0
  8  9  1  6
  8 10  1  0
 10 11  1  6
 12 11  1  6
 12 13  1  0
 13 14  1  0
 14 15  1  0
 14 16  1  0
 16 17  1  1
 16 18  1  0
 18 19  1  1
 18 20  1  0
 20 21  1  1
 20 22  1  0
 22 23  1  6
 23 24  1  0
 10  2  1  0
 22 12  1  0
M  RAD  1  14   2
M  END
>  <fragInfo>  (1) 
12 13 14 15 16 17 18 19 20 21 22
1 2 3 4 5 6 7 8 9 10
11
23 24


>  <torsionInfo>  (1) 
11 12 2 0
22 23 0 3
10 11 1 2


>  <atomInfo>  (1) 
1  -0.0608233C 
2  -0.0236278C 
3  -0.0201755C 
4  0.08280077C 
5  -0.3903155OA
6  0.10722523C 
7  -0.3876533OA
8  0.09792987C 
9  -0.3886791OA
10 0.03843588C 
11 -0.3053970NA
12 0.04221070C 
13 -0.0002503C 
14 0.12591922C 
15 -0.3838736OA
16 0.11414499C 
17 -0.3871773OA
18 0.11138303C 
19 -0.3874834OA
20 0.11334702C 
21 -0.3874005OA
22 0.13641493C 
23 -0.2315764OA
24 -0.2513804OA


$$$$
