
     RDKit          3D

 25 26  0  0  0  0  0  0  0  0999 V2000
   -5.2861   -0.7759    1.0583 C   0  0  0  0  0  0  0  0  0  0  0  0
   -4.7879   -0.8090    2.4804 C   0  0  0  0  0  0  0  0  0  0  0  0
   -5.4461    0.4928    3.1849 C   0  0  0  0  0  0  0  0  0  0  0  0
   -3.2949   -0.4452    2.5564 C   0  0  0  0  0  0  0  0  0  0  0  0
   -2.4851   -1.3784    1.6460 C   0  0  0  0  0  0  0  0  0  0  0  0
   -2.5511   -0.7016    0.2005 C   0  0  2  0  0  0  0  0  0  0  0  0
   -1.6888    0.6068    0.2168 C   0  0  1  0  0  0  0  0  0  0  0  0
   -1.3122    1.1266   -1.1089 N   0  0  0  0  0  0  0  0  0  0  0  0
   -0.6885    2.4789   -0.8912 C   0  0  0  0  0  0  0  0  0  0  0  0
   -3.2296    0.6676    0.1671 C   0  0  1  0  0  0  0  0  0  0  0  0
   -3.6443    1.1557   -1.2133 C   0  0  0  0  0  3  0  0  0  0  0  0
   -3.1446    0.2790   -2.2961 C   0  0  0  0  0  0  0  0  0  0  0  0
   -2.1954    0.8173   -3.3302 C   0  0  0  0  0  0  0  0  0  0  0  0
   -0.9006   -0.0356   -3.1073 C   0  0  0  0  0  0  0  0  0  0  0  0
   -0.3184    0.3177   -1.8063 C   0  0  2  0  0  0  0  0  0  0  0  0
    0.0674   -0.8383   -0.8817 C   0  0  0  0  0  0  0  0  0  0  0  0
    1.2836   -1.2720   -1.6837 O   0  0  0  0  0  0  0  0  0  0  0  0
    2.0860   -1.0967   -0.5638 O   0  0  0  0  0  0  0  0  0  0  0  0
    3.3180   -1.3659   -0.5402 C   0  0  0  0  0  3  0  0  0  0  0  0
    4.3117   -0.7210   -1.2629 O   0  0  0  0  0  0  0  0  0  0  0  0
    5.5045   -0.8295   -0.5210 C   0  0  0  0  0  0  0  0  0  0  0  0
    5.2061   -0.1648    0.8149 C   0  0  0  0  0  0  0  0  0  0  0  0
    6.5840   -0.1473    1.5689 C   0  0  0  0  0  0  0  0  0  0  0  0
    6.1884    0.6485    2.8531 C   0  0  0  0  0  3  0  0  0  0  0  0
    6.4241    1.9903    2.4595 O   0  0  0  0  0  0  0  0  0  0  0  0
  1  2  1  0
  2  3  1  0
  2  4  1  0
  4  5  1  0
  6  5  1  1
  7  6  1  0
  7  8  1  6
  8  9  1  0
  7 10  1  0
 10 11  1  6
 11 12  1  0
 12 13  1  0
 13 14  1  0
 14 15  1  0
 15 16  1  1
 16 17  1  0
 17 18  1  0
 18 19  1  0
 19 20  1  0
 20 21  1  0
 21 22  1  0
 22 23  1  0
 23 24  1  0
 24 25  1  0
 10  6  1  0
 15  8  1  0
M  RAD  3  11   2  19   2  24   2
M  END
>  <fragInfo>  (1) 
6 7 8 9 10 11 12 13 14 15
1 2 3
4
5
16
17
18
19
20
21
22
23
24 25


>  <torsionInfo>  (1) 
5 6 3 0
15 16 0 4
2 4 1 2
4 5 2 3
16 17 4 5
17 18 5 6
18 19 6 7
19 20 7 8
20 21 8 9
21 22 9 10
22 23 10 11
23 24 11 12


>  <atomInfo>  (1) 
1  -0.0627734C 
2  -0.0471212C 
3  -0.0627734C 
4  -0.0506409C 
5  -0.0483640C 
6  -0.0208248C 
7  0.01619097C 
8  -0.2974673NA
9  -0.0126769C 
10 -0.0180081C 
11 -0.0335800C 
12 -0.0497775C 
13 -0.0514420C 
14 -0.0351648C 
15 0.03616659C 
16 0.09784234C 
17 -0.2321784OA
18 -0.1986429OA
19 0.24540172C 
20 -0.3457300OA
21 0.05015492C 
22 -0.0269191C 
23 -0.0222595C 
24 0.07995237C 
25 -0.3904350OA


$$$$
