
     RDKit          3D

 16 16  0  0  0  0  0  0  0  0999 V2000
   -0.8016   -1.6909    1.8974 C   0  0  0  0  0  0  0  0  0  0  0  0
   -1.6205   -1.3481    0.6856 C   0  0  1  0  0  0  0  0  0  0  0  0
   -2.9964   -0.7954    1.0173 C   0  0  0  0  0  0  0  0  0  0  0  0
   -3.1748    0.4736    0.1957 C   0  0  2  0  0  0  0  0  0  0  0  0
   -2.9506    0.1033   -1.1499 O   0  0  0  0  0  0  0  0  0  0  0  0
   -2.1075    1.4610    0.6682 C   0  0  2  0  0  0  0  0  0  0  0  0
   -2.4081    2.7282    0.1252 O   0  0  0  0  0  0  0  0  0  0  0  0
   -0.8079    0.9496    0.1104 C   0  0  1  0  0  0  0  0  0  0  0  0
    0.2201    1.1447    1.0234 O   0  0  0  0  0  0  0  0  0  0  0  0
   -0.8967   -0.5001   -0.3256 C   0  0  1  0  0  0  0  0  0  0  0  0
    0.4379   -1.0414   -0.5126 N   0  0  0  0  0  0  0  0  0  0  0  0
    1.2858    0.1046   -0.8096 C   0  0  0  0  0  3  0  0  0  0  0  0
    2.5514    0.0784   -0.0040 C   0  0  0  0  0  0  0  0  0  0  0  0
    3.5536   -0.6034   -0.7957 O   0  0  0  0  0  0  0  0  0  0  0  0
    4.8009   -0.7578   -0.1725 C   0  0  0  0  0  0  0  0  0  0  0  0
    4.9145   -0.3064    1.0024 O   0  0  0  0  0  0  0  0  0  0  0  0
  2  1  1  1
  2  3  1  0
  3  4  1  0
  4  5  1  6
  4  6  1  0
  6  7  1  6
  6  8  1  0
  8  9  1  1
  8 10  1  0
 10 11  1  1
 11 12  1  0
 12 13  1  0
 13 14  1  0
 14 15  1  0
 15 16  2  0
 10  2  1  0
M  RAD  1  12   2
M  END
>  <fragInfo>  (1) 
1 2 3 4 5 6 7 8 9 10
11
12
13
14
15 16


>  <torsionInfo>  (1) 
10 11 0 1
11 12 1 2
12 13 2 3
13 14 3 4
14 15 4 5


>  <atomInfo>  (1) 
1  -0.0608233C 
2  -0.0236263C 
3  -0.0201755C 
4  0.08280077C 
5  -0.3903155OA
6  0.10722524C 
7  -0.3876533OA
8  0.09793130C 
9  -0.3886791OA
10 0.03851500C 
11 -0.3036259NA
12 0.06041560C 
13 0.10795879C 
14 -0.4661725OA
15 0.29263437C 
16 -0.2561377OA


$$$$
