
     RDKit          3D

 23 24  0  0  0  0  0  0  0  0999 V2000
   -1.0457    0.9118   -1.6459 C   0  0  0  0  0  0  0  0  0  0  0  0
   -0.8332    0.7138   -0.1339 C   0  0  1  0  0  0  0  0  0  0  0  0
   -1.7559    1.7458    0.5242 C   0  0  0  0  0  0  0  0  0  0  0  0
   -3.1056    1.5392   -0.1723 C   0  0  2  0  0  0  0  0  0  0  0  0
   -3.9902    2.5062    0.2368 O   0  0  0  0  0  0  0  0  0  0  0  0
   -3.6278    0.1917    0.2600 C   0  0  2  0  0  0  0  0  0  0  0  0
   -3.9212    0.2497    1.6226 O   0  0  0  0  0  0  0  0  0  0  0  0
   -2.7269   -0.9479   -0.0634 C   0  0  1  0  0  0  0  0  0  0  0  0
   -2.9475   -1.5137   -1.3088 O   0  0  0  0  0  0  0  0  0  0  0  0
   -1.2758   -0.6844    0.2163 C   0  0  1  0  0  0  0  0  0  0  0  0
   -0.4863   -1.6556   -0.4598 N   0  0  0  0  0  0  0  0  0  0  0  0
    0.8935   -1.7003   -0.1539 C   0  0  1  0  0  0  0  0  0  0  0  0
    1.6938   -0.4736   -0.4800 C   0  0  2  0  0  0  0  0  0  0  0  0
    2.1037   -0.3475   -1.9044 C   0  0  0  0  0  0  0  0  0  0  0  0
    2.8396    0.8103   -2.0831 O   0  0  0  0  0  0  0  0  0  0  0  0
    2.1603    1.9763   -1.7561 C   0  0  0  0  0  3  0  0  0  0  0  0
    3.1325    2.9860   -1.5698 O   0  0  0  0  0  0  0  0  0  0  0  0
    2.8939   -0.6570    0.4593 C   0  0  1  0  0  0  0  0  0  0  0  0
    3.7128    0.4437    0.4843 O   0  0  0  0  0  0  0  0  0  0  0  0
    2.1598   -0.9113    1.7599 C   0  0  2  0  0  0  0  0  0  0  0  0
    2.9846   -1.3232    2.7723 O   0  0  0  0  0  0  0  0  0  0  0  0
    1.1587   -1.9772    1.3289 C   0  0  1  0  0  0  0  0  0  0  0  0
   -0.0171   -1.8827    2.0671 O   0  0  0  0  0  0  0  0  0  0  0  0
  2  1  1  6
  2  3  1  0
  3  4  1  0
  4  5  1  1
  4  6  1  0
  6  7  1  1
  6  8  1  0
  8  9  1  6
  8 10  1  0
 10 11  1  6
 12 11  1  1
 12 13  1  0
 13 14  1  6
 14 15  1  0
 15 16  1  0
 16 17  1  0
 13 18  1  0
 18 19  1  1
 18 20  1  0
 20 21  1  1
 20 22  1  0
 22 23  1  1
 10  2  1  0
 22 12  1  0
M  RAD  1  16   2
M  END
>  <fragInfo>  (1) 
1 2 3 4 5 6 7 8 9 10
11
12 13 18 19 20 21 22 23
14
15
16 17


>  <torsionInfo>  (1) 
10 11 0 1
11 12 1 2
13 14 2 3
14 15 3 4
15 16 4 5


>  <atomInfo>  (1) 
1  -0.0608233C 
2  -0.0236276C 
3  -0.0201755C 
4  0.08280077C 
5  -0.3903155OA
6  0.10722523C 
7  -0.3876533OA
8  0.09793003C 
9  -0.3886791OA
10 0.03844453C 
11 -0.3052176NA
12 0.04341214C 
13 0.02902120C 
14 0.05694604C 
15 -0.3476637OA
16 0.20625236C 
17 -0.3639430OA
18 0.08908348C 
19 -0.3898782OA
20 0.10764457C 
21 -0.3876390OA
22 0.09814236C 
23 -0.3886752OA


$$$$
