
     RDKit          3D

 44 50  0  0  0  0  0  0  0  0999 V2000
   -2.2067    0.6330   -1.0674 C   0  0  1  0  0  0  0  0  0  0  0  0
   -1.7373    1.9586   -0.5375 C   0  0  2  0  0  0  0  0  0  0  0  0
   -2.9179    2.8337   -0.0846 C   0  0  0  0  0  0  0  0  0  0  0  0
   -1.0698    2.7896   -1.6435 C   0  0  0  0  0  0  0  0  0  0  0  0
    0.3264    3.1843   -1.3240 C   0  0  0  0  0  0  0  0  0  0  0  0
    0.4916    4.1122   -0.1662 C   0  0  0  0  0  0  0  0  0  0  0  0
    1.9706    4.1809    0.1628 C   0  0  1  0  0  0  0  0  0  0  0  0
    2.2358    4.5833    1.5783 C   0  0  0  0  0  0  0  0  0  0  0  0
    2.6449    2.8391   -0.1039 C   0  0  2  0  0  0  0  0  0  0  0  0
    3.1898    2.8960   -1.5172 C   0  0  0  0  0  2  0  0  0  0  0  0
    1.6256    1.7592    0.0699 C   0  0  0  0  0  0  0  0  0  0  0  0
    2.1388    0.4196   -0.3716 C   0  0  1  0  0  0  0  0  0  0  0  0
    3.5883    0.3235   -0.0602 C   0  0  0  0  0  0  0  0  0  0  0  0
    3.5309   -0.0492    1.4212 C   0  0  0  0  0  0  0  0  0  0  0  0
    2.4871   -1.1127    1.3679 C   0  0  1  0  0  0  0  0  0  0  0  0
    2.1558   -1.7006    2.6402 C   0  0  0  0  0  0  0  0  0  0  0  0
    0.8503   -2.3480    2.8358 C   0  0  0  0  0  0  0  0  0  0  0  0
   -0.2383   -1.3069    2.9473 C   0  0  2  0  0  0  0  0  0  0  0  0
   -0.8222   -1.2426    4.1839 O   0  0  0  0  0  0  0  0  0  0  0  0
   -1.2416   -1.6622    1.8475 C   0  0  0  0  0  0  0  0  0  0  0  0
    0.3806    0.0381    2.5359 C   0  0  0  0  0  0  0  0  0  0  0  0
    1.4273   -0.7337    0.3811 C   0  0  1  0  0  0  0  0  0  0  0  0
    0.2899   -0.1477    1.0076 C   0  0  1  0  0  0  0  0  0  0  0  0
   -1.1015   -0.4510    0.9067 C   0  0  2  0  0  0  0  0  0  0  0  0
   -1.8445    0.6390    1.7298 C   0  0  0  0  0  0  0  0  0  0  0  0
   -3.2514    0.1070    1.9031 C   0  0  0  0  0  0  0  0  0  0  0  0
   -4.1269    1.0343    2.6824 C   0  0  0  0  0  0  0  0  0  0  0  0
   -3.5065    1.2232    4.0587 C   0  0  0  0  0  2  0  0  0  0  0  0
   -1.8099   -0.5605   -0.3493 C   0  0  1  0  0  0  0  0  0  0  0  0
   -3.2885   -0.1390   -0.4491 C   0  0  2  0  0  0  0  0  0  0  0  0
   -4.1166   -0.8349   -1.4954 C   0  0  0  0  0  0  0  0  0  0  0  0
   -3.2122   -1.7431   -2.3056 C   0  0  0  0  0  3  0  0  0  0  0  0
   -2.2632   -0.8831   -3.0723 C   0  0  1  0  0  0  0  0  0  0  0  0
   -2.1261    0.5080   -2.5690 C   0  0  0  0  0  0  0  0  0  0  0  0
   -1.0608   -1.4997   -3.3827 O   0  0  0  0  0  0  0  0  0  0  0  0
   -0.4614   -2.1366   -2.3285 C   0  0  0  0  0  0  0  0  0  0  0  0
    0.8832   -1.4608   -2.0046 C   0  0  2  0  0  0  0  0  0  0  0  0
    0.8803   -0.0064   -2.3293 C   0  0  0  0  0  0  0  0  0  0  0  0
    1.8029   -2.0822   -3.0820 C   0  0  0  0  0  0  0  0  0  0  0  0
    1.8202   -3.6012   -2.8991 C   0  0  0  0  0  2  0  0  0  0  0  0
    1.3223   -1.8242   -0.6148 C   0  0  2  0  0  0  0  0  0  0  0  0
    0.4120   -2.9624   -0.1238 C   0  0  0  0  0  0  0  0  0  0  0  0
    2.6780   -2.4783   -0.7868 C   0  0  0  0  0  0  0  0  0  0  0  0
    3.2708   -3.0956    0.4081 C   0  0  0  0  0  0  0  0  0  0  0  0
  1  2  1  0
  2  3  1  6
  2  4  1  0
  4  5  1  0
  5  6  1  0
  6  7  1  0
  7  8  1  1
  7  9  1  0
  9 10  1  6
  9 11  1  0
 12 11  1  1
 12 13  1  0
 13 14  1  0
 15 14  1  1
 15 16  1  0
 16 17  1  0
 17 18  1  0
 18 19  1  1
 18 20  1  0
 18 21  1  0
 22 15  1  1
 22 23  1  0
 23 24  1  0
 24 25  1  1
 25 26  1  0
 26 27  1  0
 27 28  1  0
 24 29  1  0
 29 30  1  1
 30 31  1  6
 31 32  1  0
 33 32  1  1
 33 34  1  0
 33 35  1  0
 35 36  1  0
 36 37  1  0
 37 38  1  1
 37 39  1  0
 39 40  1  0
 37 41  1  0
 41 42  1  1
 41 43  1  0
 43 44  1  0
 29  1  1  0
 30  1  1  0
  1 34  1  6
 22 12  1  0
 24 20  1  0
 23 21  1  1
 41 22  1  0
M  RAD  4  10   3  28   3  32   2  40   3
M  END
>  <fragInfo>  (1) 
1 2 3 4 5 6 7 8 9 10 11 12 13 14 15 16 17 18 19 20 21 22 23 24 29 30 31 32 33 34 35 36 37 38 41 42
25
26
27 28
39 40
43 44


>  <torsionInfo>  (1) 
24 25 0 1
37 39 0 4
41 43 0 5
25 26 1 2
26 27 2 3


>  <atomInfo>  (1) 
1  -0.0179074C 
2  -0.0379283C 
3  -0.0619555C 
4  -0.0501481C 
5  -0.0527674C 
6  -0.0504257C 
7  -0.0411388C 
8  -0.0622339C 
9  -0.0351493C 
10 -0.0315153C 
11 -0.0464775C 
12 -0.0343572C 
13 -0.0495799C 
14 -0.0495884C 
15 -0.0345353C 
16 -0.0471395C 
17 -0.0238322C 
18 0.06560804C 
19 -0.3898607OA
20 -0.0178651C 
21 -0.0201654C 
22 -0.0146215C 
23 -0.0258648C 
24 -0.0198473C 
25 -0.0468936C 
26 -0.0524694C 
27 -0.0498766C 
28 -0.0351919C 
29 -0.0256461C 
30 -0.0307930C 
31 -0.0438909C 
32 -0.0093543C 
33 0.06124189C 
34 -0.0199274C 
35 -0.3773105OA
36 0.05287369C 
37 -0.0028779C 
38 -0.0568776C 
39 -0.0417049C 
40 -0.0345237C 
41 -0.0187807C 
42 -0.0584809C 
43 -0.0495537C 
44 -0.0648200C 


$$$$
