
     RDKit          3D

 25 25  0  0  0  0  0  0  0  0999 V2000
    6.2474    1.3527   -0.4347 C   0  0  0  0  0  0  0  0  0  0  0  0
    5.6893    0.7304    0.8091 C   0  0  0  0  0  3  0  0  0  0  0  0
    5.0911   -0.6072    0.4435 C   0  0  0  0  0  0  0  0  0  0  0  0
    3.9926   -0.4932   -0.5611 C   0  0  2  0  0  0  0  0  0  0  0  0
    4.4497    0.0819   -1.7447 O   0  0  0  0  0  0  0  0  0  0  0  0
    2.7435    0.1497   -0.0363 C   0  0  2  0  0  0  0  0  0  0  0  0
    3.0078    1.5041    0.2123 O   0  0  0  0  0  0  0  0  0  0  0  0
    2.3757   -0.5051    1.2621 C   0  0  1  0  0  0  0  0  0  0  0  0
    3.4013   -0.4081    2.1910 O   0  0  0  0  0  0  0  0  0  0  0  0
    1.0516   -0.0198    1.8136 C   0  0  0  0  0  3  0  0  0  0  0  0
   -0.0146   -0.3368    0.7937 C   0  0  2  0  0  0  0  0  0  0  0  0
   -1.3778    0.0898    1.2106 C   0  0  0  0  0  3  0  0  0  0  0  0
   -2.2364    0.6204    0.1132 C   0  0  2  0  0  0  0  0  0  0  0  0
   -3.4948    1.1905    0.7343 C   0  0  1  0  0  0  0  0  0  0  0  0
   -3.2454    2.2139    1.6232 O   0  0  0  0  0  0  0  0  0  0  0  0
   -4.3992    1.7154   -0.3746 C   0  0  0  0  0  0  0  0  0  0  0  0
   -5.6041    2.1744    0.1262 O   0  0  0  0  0  0  0  0  0  0  0  0
   -4.2276    0.0456    1.4376 C   0  0  0  0  0  2  0  0  0  0  0  0
   -0.0069   -1.7763    0.3751 C   0  0  0  0  0  0  0  0  0  0  0  0
   -1.1801   -2.1466   -0.2290 O   0  0  0  0  0  0  0  0  0  0  0  0
   -1.5391   -1.3361   -1.3011 C   0  0  2  0  0  0  0  0  0  0  0  0
   -0.3704   -0.6300   -1.9238 C   0  0  0  0  0  2  0  0  0  0  0  0
   -2.6447   -0.3973   -0.9029 C   0  0  1  0  0  0  0  0  0  0  0  0
   -3.7235   -1.1846   -0.4652 O   0  0  0  0  0  0  0  0  0  0  0  0
   -3.9851   -2.0278   -1.4301 O   0  0  0  0  0  0  0  0  0  0  0  0
  1  2  1  0
  2  3  1  0
  3  4  1  0
  4  5  1  6
  4  6  1  0
  6  7  1  1
  6  8  1  0
  8  9  1  1
  8 10  1  0
 11 10  1  1
 11 12  1  0
 13 12  1  1
 13 14  1  0
 14 15  1  0
 14 16  1  0
 16 17  1  0
 14 18  1  1
 11 19  1  0
 19 20  1  0
 20 21  1  0
 21 22  1  1
 21 23  1  0
 23 24  1  1
 24 25  1  0
 23 13  1  0
M  RAD  5   2   2  10   2  12   2  18   3  22   3
M  END
>  <fragInfo>  (1) 
11 12 13 19 20 21 22 23
1 2
3
4 5
6 7
8 9
10
14 15 18
16 17
24 25


>  <torsionInfo>  (1) 
10 11 6 0
13 14 0 7
23 24 0 9
2 3 1 2
3 4 2 3
4 6 3 4
6 8 4 5
8 10 5 6
14 16 7 8


>  <atomInfo>  (1) 
1  -0.0621560C 
2  -0.0390442C 
3  -0.0215039C 
4  0.08269800C 
5  -0.3903174OA
6  0.10597409C 
7  -0.3877077OA
8  0.08595981C 
9  -0.3900110OA
10 -0.0015262C 
11 -0.0084500C 
12 -0.0239306C 
13 0.02574751C 
14 0.09702836C 
15 -0.3867662OA
16 0.07257372C 
17 -0.3933599OA
18 0.00236840C 
19 0.05057294C 
20 -0.3747495OA
21 0.09076831C 
22 -0.0007136C 
23 0.12495466C 
24 -0.2329134OA
25 -0.2514289OA


$$$$
