
     RDKit          3D

 23 23  0  0  0  0  0  0  0  0999 V2000
   -1.4755    1.6571   -0.3384 C   0  0  0  0  0  0  0  0  0  0  0  0
   -2.5949    0.6905   -0.2268 C   0  0  1  0  0  0  0  0  0  0  0  0
   -2.8550   -0.1553   -1.4266 C   0  0  0  0  0  0  0  0  0  0  0  0
   -4.3508   -0.4934   -1.4301 C   0  0  2  0  0  0  0  0  0  0  0  0
   -4.9588    0.5169   -2.2052 O   0  0  0  0  0  0  0  0  0  0  0  0
   -4.9184   -0.3637   -0.0248 C   0  0  2  0  0  0  0  0  0  0  0  0
   -5.1369    1.0018    0.1921 O   0  0  0  0  0  0  0  0  0  0  0  0
   -3.9411   -0.9146    1.0112 C   0  0  1  0  0  0  0  0  0  0  0  0
   -3.6961   -2.2416    0.6721 O   0  0  0  0  0  0  0  0  0  0  0  0
   -2.6674   -0.0948    1.0384 C   0  0  1  0  0  0  0  0  0  0  0  0
   -1.5702   -0.9775    1.2789 N   0  0  0  0  0  0  0  0  0  0  0  0
   -0.2882   -0.3249    1.4318 C   0  0  0  0  0  3  0  0  0  0  0  0
    0.7585   -1.1246    0.7367 C   0  0  0  0  0  0  0  0  0  0  0  0
    2.1463   -0.6021    0.8255 C   0  0  2  0  0  0  0  0  0  0  0  0
    2.6363   -0.5006    2.1226 O   0  0  0  0  0  0  0  0  0  0  0  0
    2.2900    0.6879    0.0614 C   0  0  1  0  0  0  0  0  0  0  0  0
    1.5671    1.6592    0.7649 O   0  0  0  0  0  0  0  0  0  0  0  0
    3.7613    1.1002   -0.0187 C   0  0  1  0  0  0  0  0  0  0  0  0
    4.2435    1.2113    1.2844 O   0  0  0  0  0  0  0  0  0  0  0  0
    4.4815   -0.0313   -0.7409 C   0  0  1  0  0  0  0  0  0  0  0  0
    3.9948   -0.1354   -2.0375 O   0  0  0  0  0  0  0  0  0  0  0  0
    5.9715    0.2382   -0.7881 C   0  0  0  0  0  3  0  0  0  0  0  0
    6.6025   -0.8033   -1.4480 O   0  0  0  0  0  0  0  0  0  0  0  0
  2  1  1  6
  2  3  1  0
  3  4  1  0
  4  5  1  6
  4  6  1  0
  6  7  1  1
  6  8  1  0
  8  9  1  6
  8 10  1  0
 10 11  1  6
 11 12  1  0
 12 13  1  0
 13 14  1  0
 14 15  1  1
 14 16  1  0
 16 17  1  1
 16 18  1  0
 18 19  1  1
 18 20  1  0
 20 21  1  6
 20 22  1  0
 22 23  1  0
 10  2  1  0
M  RAD  2  12   2  22   2
M  END
>  <fragInfo>  (1) 
1 2 3 4 5 6 7 8 9 10
11
12
13
14 15
16 17
18 19
20 21
22 23


>  <torsionInfo>  (1) 
10 11 0 1
11 12 1 2
12 13 2 3
13 14 3 4
14 16 4 5
16 18 5 6
18 20 6 7
20 22 7 8


>  <atomInfo>  (1) 
1  -0.0608233C 
2  -0.0236285C 
3  -0.0201755C 
4  0.08280077C 
5  -0.3903155OA
6  0.10722522C 
7  -0.3876533OA
8  0.09792914C 
9  -0.3886791OA
10 0.03839079C 
11 -0.3066599NA
12 0.02511885C 
13 -0.0073298C 
14 0.08407044C 
15 -0.3902628OA
16 0.10838775C 
17 -0.3876078OA
18 0.11088030C 
19 -0.3874999OA
20 0.11098523C 
21 -0.3874979OA
22 0.11098718C 
23 -0.3874979OA


$$$$
