
     RDKit          3D

 27 30  0  0  0  0  0  0  0  0999 V2000
   -0.0691   -2.6260   -2.1473 O   0  0  0  0  0  0  0  0  0  0  0  0
   -0.7473   -2.0518   -1.2655 C   0  0  0  0  0  0  0  0  0  0  0  0
   -1.4778   -2.8896   -0.3188 C   0  0  0  0  0  0  0  0  0  0  0  0
   -1.4144   -4.2856   -0.4041 C   0  0  0  0  0  0  0  0  0  0  0  0
   -2.1267   -5.0126    0.5192 C   0  0  0  0  0  0  0  0  0  0  0  0
   -2.8763   -4.3912    1.4937 C   0  0  0  0  0  0  0  0  0  0  0  0
   -2.9419   -3.0164    1.5819 C   0  0  0  0  0  0  0  0  0  0  0  0
   -2.2333   -2.2735    0.6635 C   0  0  0  0  0  0  0  0  0  0  0  0
   -2.2673   -0.8475    0.7107 N   0  0  0  0  0  0  0  0  0  0  0  0
   -1.6374   -0.0818   -0.1055 C   0  0  0  0  0  0  0  0  0  0  0  0
   -1.7679    1.3555    0.0671 C   0  0  0  0  0  0  0  0  0  0  0  0
   -2.5384    1.9162    1.0687 C   0  0  0  0  0  0  0  0  0  0  0  0
   -2.6756    3.2693    1.2498 C   0  0  0  0  0  0  0  0  0  0  0  0
   -2.0233    4.1169    0.4047 C   0  0  0  0  0  0  0  0  0  0  0  0
   -2.1932    5.8689    0.6289 Cl  0  0  0  0  0  0  0  0  0  0  0  0
   -1.2435    3.6103   -0.6090 C   0  0  0  0  0  0  0  0  0  0  0  0
   -1.1240    2.2476   -0.7670 C   0  0  0  0  0  0  0  0  0  0  0  0
   -0.7974   -0.5944   -1.1973 C   0  0  1  0  0  0  0  0  0  0  0  0
    0.5328    0.0835   -1.3005 C   0  0  0  0  0  0  0  0  0  0  0  0
    1.4924   -0.3127   -0.2089 C   0  0  0  0  0  0  0  0  0  0  0  0
    2.7650    0.4494   -0.4574 C   0  0  0  0  0  0  0  0  0  0  0  0
    3.1750    1.2738    0.5045 C   0  0  0  0  0  0  0  0  0  0  0  0
    4.4146    2.1402    0.4863 C   0  0  0  0  0  0  0  0  0  0  0  0
    5.6132    1.2464    0.4720 C   0  0  0  0  0  0  0  0  0  0  0  0
    5.8053    0.4893   -0.7826 C   0  0  0  0  0  0  0  0  0  0  0  0
    4.9043    0.0954   -1.6517 C   0  0  0  0  0  0  0  0  0  0  0  0
    3.4523    0.2204   -1.7518 C   0  0  0  0  0  0  0  0  0  0  0  0
  1  2  2  0
  2  3  1  0
  3  4  2  0
  4  5  1  0
  5  6  2  0
  6  7  1  0
  7  8  2  0
  8  9  1  0
  9 10  2  0
 10 11  1  0
 11 12  2  0
 12 13  1  0
 13 14  2  0
 14 15  1  0
 14 16  1  0
 16 17  2  0
 10 18  1  0
 18 19  1  1
 19 20  1  0
 20 21  1  0
 21 22  2  0
 22 23  1  0
 23 24  1  0
 24 25  1  0
 25 26  2  0
 26 27  1  0
 18  2  1  0
  8  3  1  0
 17 11  1  0
 27 21  1  0
M  END
>  <fragInfo>  (1) 
1 2 3 4 5 6 7 8 9 10 18
11 12 13 14 15 16 17
19
20
21 22 23 24 25 26 27


>  <torsionInfo>  (1) 
10 11 0 1
18 19 0 2
19 20 2 3
20 21 3 4


>  <atomInfo>  (1) 
1  -0.2933463OA
2  0.17359385C 
3  0.04392507A 
4  -0.0492021A 
5  -0.0613892A 
6  -0.0600744A 
7  -0.0356695A 
8  0.07412903A 
9  -0.2513000NA
10 0.05915283C 
11 -0.0031985A 
12 -0.0516488A 
13 -0.0428663A 
14 0.04059324A 
15 -0.0843437Cl
16 -0.0428663A 
17 -0.0516488A 
18 0.06566501C 
19 -0.0336851C 
20 -0.0306385C 
21 -0.0703833C 
22 -0.0847106C 
23 -0.0313189C 
24 -0.0315774C 
25 -0.0879095C 
26 -0.0844631C 
27 -0.0138824C 


$$$$
