
     RDKit          3D

  9  8  0  0  0  0  0  0  0  0999 V2000
   -2.9060    0.6980    0.3174 C   0  0  0  0  0  0  0  0  0  0  0  0
   -2.9526   -0.5970   -0.2137 O   0  0  0  0  0  0  0  0  0  0  0  0
   -1.6822   -1.0269   -0.6281 C   0  0  0  0  0  3  0  0  0  0  0  0
   -0.8261    0.0464   -0.4676 O   0  0  0  0  0  0  0  0  0  0  0  0
    0.4889   -0.2248   -0.7901 C   0  0  2  0  0  0  0  0  0  0  0  0
    1.1201   -1.2207    0.1568 C   0  0  0  0  0  0  0  0  0  0  0  0
    1.2359    1.1020   -0.6974 C   0  0  0  0  0  3  0  0  0  0  0  0
    2.3266    1.0338    0.3198 C   0  0  0  0  0  0  0  0  0  0  0  0
    3.1954    0.1892    0.1113 O   0  0  0  0  0  0  0  0  0  0  0  0
  1  2  1  0
  2  3  1  0
  3  4  1  0
  4  5  1  0
  5  6  1  1
  5  7  1  0
  7  8  1  0
  8  9  2  0
M  RAD  2   3   2   7   2
M  END
>  <fragInfo>  (1) 
1 2
3
4
5 6
7
8 9


>  <torsionInfo>  (1) 
2 3 0 1
3 4 1 2
4 5 2 3
5 7 3 4
7 8 4 5


>  <atomInfo>  (1) 
1  0.03885651C 
2  -0.3513312OA
3  0.20895327C 
4  -0.3441492OA
5  0.06827623C 
6  -0.0378173C 
7  0.05261648C 
8  0.12597186C 
9  -0.3029536OA


$$$$
