
     RDKit          3D

 29 30  0  0  0  0  0  0  0  0999 V2000
    7.2299    1.4855   -2.3666 C   0  0  0  0  0  0  0  0  0  0  0  0
    6.2649    2.3974   -1.6511 C   0  0  0  0  0  0  0  0  0  0  0  0
    5.3756    3.1467   -2.6176 C   0  0  0  0  0  0  0  0  0  0  0  0
    5.4766    1.6338   -0.6159 C   0  0  0  0  0  0  0  0  0  0  0  0
    6.4390    1.0473    0.3794 C   0  0  0  0  0  0  0  0  0  0  0  0
    5.7313    0.2668    1.4499 C   0  0  0  0  0  0  0  0  0  0  0  0
    4.9644   -0.8557    0.8047 C   0  0  1  0  0  0  0  0  0  0  0  0
    4.2319   -1.6724    1.8553 C   0  0  0  0  0  0  0  0  0  0  0  0
    3.9743   -0.2641   -0.1747 C   0  0  0  0  0  3  0  0  0  0  0  0
    3.0197    0.6518    0.5466 C   0  0  0  0  0  0  0  0  0  0  0  0
    2.2887   -0.1661    1.5908 C   0  0  0  0  0  0  0  0  0  0  0  0
    1.5523   -1.2640    0.8532 C   0  0  1  0  0  0  0  0  0  0  0  0
    0.8094   -2.1072    1.8356 C   0  0  0  0  0  0  0  0  0  0  0  0
    0.7002   -0.6472   -0.2068 C   0  0  0  0  0  3  0  0  0  0  0  0
   -0.0799   -1.6366   -1.0073 C   0  0  0  0  0  0  0  0  0  0  0  0
   -1.0321   -2.4613   -0.1446 C   0  0  2  0  0  0  0  0  0  0  0  0
   -1.7411   -3.4118   -1.1183 C   0  0  0  0  0  0  0  0  0  0  0  0
   -2.1191   -1.4786    0.3102 C   0  0  0  0  0  0  0  0  0  0  0  0
   -2.7646   -0.9603   -0.9586 C   0  0  0  0  0  0  0  0  0  0  0  0
   -3.8462    0.0128   -0.6179 C   0  0  2  0  0  0  0  0  0  0  0  0
   -3.3342    1.0947    0.0923 O   0  0  0  0  0  0  0  0  0  0  0  0
   -4.6548   -0.3697    0.6232 C   0  0  0  0  0  0  0  0  0  0  0  0
   -4.7564    0.4117   -1.7333 C   0  0  0  0  0  0  0  0  0  0  0  0
   -5.8697   -0.4393   -1.7286 O   0  0  0  0  0  0  0  0  0  0  0  0
   -6.6350   -0.2031   -0.6467 N   0  0  0  0  0  0  0  0  0  0  0  0
   -6.7919    1.2024   -0.3598 C   0  0  0  0  0  0  0  0  0  0  0  0
   -5.5259    1.8975   -0.0213 C   0  0  0  0  0  0  0  0  0  0  0  0
   -4.5617    1.1198    0.7941 C   0  0  2  0  0  0  0  0  0  0  0  0
   -4.3457    1.5692    2.2116 C   0  0  0  0  0  0  0  0  0  0  0  0
  1  2  1  0
  2  3  1  0
  2  4  1  0
  4  5  1  0
  5  6  1  0
  6  7  1  0
  7  8  1  1
  7  9  1  0
  9 10  1  0
 10 11  1  0
 11 12  1  0
 12 13  1  1
 12 14  1  0
 14 15  1  0
 15 16  1  0
 16 17  1  6
 16 18  1  0
 18 19  1  0
 20 19  1  6
 20 21  1  0
 20 22  1  0
 20 23  1  0
 23 24  1  0
 24 25  1  0
 25 26  1  0
 26 27  1  0
 27 28  1  0
 28 29  1  1
 28 21  1  0
 28 22  1  0
M  RAD  2   9   2  14   2
M  END
>  <fragInfo>  (1) 
20 21 22 23 24 25 26 27 28 29
1 2 3
4
5
6
7 8
9
10
11
12 13
14
15
16 17
18
19


>  <torsionInfo>  (1) 
19 20 14 0
2 4 1 2
4 5 2 3
5 6 3 4
6 7 4 5
7 9 5 6
9 10 6 7
10 11 7 8
11 12 8 9
12 14 9 10
14 15 10 11
15 16 11 12
16 18 12 13
18 19 13 14


>  <atomInfo>  (1) 
1  -0.0627736C 
2  -0.0471324C 
3  -0.0627736C 
4  -0.0509643C 
5  -0.0527983C 
6  -0.0504266C 
7  -0.0411603C 
8  -0.0622342C 
9  -0.0357403C 
10 -0.0496542C 
11 -0.0501520C 
12 -0.0411400C 
13 -0.0622339C 
14 -0.0354871C 
15 -0.0473225C 
16 -0.0438888C 
17 -0.0624973C 
18 -0.0478622C 
19 -0.0211087C 
20 0.09692552C 
21 -0.3660717OA
22 0.00765663C 
23 0.09733120C 
24 -0.2987680OA
25 -0.2023416NA
26 0.02369085C 
27 -0.0090931C 
28 0.07041939C 
29 -0.0356077C 


$$$$
