
     RDKit          2D

 40 43  0  0  0  0  0  0  0  0999 V2000
    7.1193   -5.4446    0.0000 C   0  0  0  0  0  0  0  0  0  0  0  0
    8.4207   -4.6987    0.0000 C   0  0  0  0  0  0  0  0  0  0  0  0
    9.7221   -3.9528    0.0000 C   0  0  0  0  0  0  0  0  0  0  0  0
    9.1666   -6.0001    0.0000 C   0  0  0  0  0  0  0  0  0  0  0  0
    7.6748   -3.3973    0.0000 S   0  0  0  0  0  0  0  0  0  0  0  0
    8.7776   -2.3806    0.0000 C   0  0  0  0  0  0  0  0  0  0  0  0
    9.3300   -0.9860    0.0000 C   0  0  0  0  0  0  0  0  0  0  0  0
   10.8126   -1.2142    0.0000 C   0  0  0  0  0  0  0  0  0  0  0  0
    9.2227    0.5102    0.0000 C   0  0  0  0  0  0  0  0  0  0  0  0
   10.6546    0.0635    0.0000 C   0  0  0  0  0  0  0  0  0  0  0  0
   10.1616    1.6800    0.0000 C   0  0  0  0  0  0  0  0  0  0  0  0
    8.4768    1.8116    0.0000 C   0  0  0  0  0  0  0  0  0  0  0  0
    9.5796    2.8284    0.0000 O   0  0  0  0  0  0  0  0  0  0  0  0
    7.2401    2.6605    0.0000 O   0  0  0  0  0  0  0  0  0  0  0  0
    5.3950    2.3605    0.0000 N   0  0  0  0  0  0  0  0  0  0  0  0
    5.4856    3.8578    0.0000 C   0  0  0  0  0  0  0  0  0  0  0  0
    4.4909    4.9806    0.0000 C   0  0  0  0  0  0  0  0  0  0  0  0
    3.8375    6.3419    0.0000 C   0  0  0  0  0  0  0  0  0  0  0  0
    2.3649    6.6271    0.0000 C   0  0  0  0  0  0  0  0  0  0  0  0
    1.3815    5.4944    0.0000 C   0  0  0  0  0  0  0  0  0  0  0  0
   -0.0911    5.7796    0.0000 Cl  0  0  0  0  0  0  0  0  0  0  0  0
    1.8708    4.0764    0.0000 C   0  0  0  0  0  0  0  0  0  0  0  0
    2.9936    5.0711    0.0000 C   0  0  0  0  0  0  0  0  0  0  0  0
    4.2722    1.3658    0.0000 C   0  0  0  0  0  0  0  0  0  0  0  0
    2.7750    1.4564    0.0000 C   0  0  0  0  0  0  0  0  0  0  0  0
    3.1339    0.0000    0.0000 C   0  0  0  0  0  0  0  0  0  0  0  0
    2.7750   -1.4564    0.0000 C   0  0  0  0  0  0  0  0  0  0  0  0
    1.7803   -2.5792    0.0000 S   0  0  0  0  0  0  0  0  0  0  0  0
    0.3778   -3.1111    0.0000 C   0  0  0  0  0  0  0  0  0  0  0  0
   -1.1113   -2.9303    0.0000 C   0  0  0  0  0  0  0  0  0  0  0  0
   -2.3458   -2.0782    0.0000 C   0  0  0  0  0  0  0  0  0  0  0  0
   -3.0429   -0.7500    0.0000 C   0  0  0  0  0  0  0  0  0  0  0  0
   -3.0429    0.7500    0.0000 C   0  0  0  0  0  0  0  0  0  0  0  0
   -2.3458    2.0782    0.0000 S   0  0  0  0  0  0  0  0  0  0  0  0
   -1.1113    2.9303    0.0000 S   0  0  0  0  0  0  0  0  0  0  0  0
    0.3778    3.1111    0.0000 C   0  0  0  0  0  0  0  0  0  0  0  0
    1.7803    2.5792    0.0000 C   0  0  0  0  0  0  0  0  0  0  0  0
    3.5209   -2.7578    0.0000 C   0  0  0  0  0  0  0  0  0  0  0  0
    4.7575   -3.6067    0.0000 C   0  0  0  0  0  0  0  0  0  0  0  0
    6.2401   -3.8349    0.0000 C   0  0  0  0  0  0  0  0  0  0  0  0
  1  2  1  0
  2  3  1  0
  2  4  1  0
  2  5  1  0
  5  6  2  3
  6  7  1  0
  7  8  1  0
  7  9  1  0
  9 10  1  0
  9 11  1  0
  9 12  1  0
 12 13  2  0
 12 14  1  0
 14 15  1  0
 15 16  1  0
 16 17  1  0
 17 18  2  0
 18 19  1  0
 19 20  2  0
 20 21  1  0
 20 22  1  0
 22 23  2  0
 15 24  1  0
 24 25  2  3
 25 26  1  0
 26 27  2  3
 27 28  1  0
 28 29  1  0
 29 30  1  0
 30 31  2  3
 31 32  1  0
 32 33  2  3
 33 34  1  0
 34 35  1  0
 35 36  1  0
 36 37  2  3
 27 38  1  0
 38 39  1  0
 39 40  2  3
 40  5  1  0
 23 17  1  0
 37 22  1  0
 37 25  1  0
M  END
>  <fragInfo>  (1) 
5 6 7 8 9 10 11 12 13 14 15 16 17 18 19 20 21 22 23 24 25 26 27 28 29 30 31 32 33 34 35 36 37 38 39 40
1 2 3 4


>  <torsionInfo>  (1) 
2 5 1 0


>  <atomInfo>  (1) 
1  -0.0511236C 
2  0.00605159C 
3  -0.0511236C 
4  -0.0511236C 
5  -0.1606149S 
6  -0.0526635C 
7  -0.0046257C 
8  -0.0574279C 
9  0.07131327C 
10 -0.0486375C 
11 -0.0486375C 
12 0.33799222C 
13 -0.2490129OA
14 -0.3404354OA
15 -0.2086623N 
16 0.08064995C 
17 -0.0244004A 
18 -0.0555948A 
19 -0.0425481A 
20 0.04845309A 
21 -0.0836631Cl
22 0.00183150A 
23 -0.0476947A 
24 0.04712734C 
25 0.00298998C 
26 -0.0428663C 
27 -0.0104336C 
28 -0.1260926SA
29 0.01603364C 
30 -0.0742347C 
31 -0.0648951C 
32 -0.0553540C 
33 -0.0178335C 
34 -0.0611340SA
35 -0.0604824SA
36 -0.0092412C 
37 -0.0008447C 
38 -0.0028944C 
39 -0.0737517C 
40 -0.0382428C 


$$$$
