
     RDKit          3D

 30 33  0  0  0  0  0  0  0  0999 V2000
    4.0461    2.9519    4.2040 C   0  0  0  0  0  0  0  0  0  0  0  0
    3.8612    3.8101    3.0630 O   0  0  0  0  0  0  0  0  0  0  0  0
    2.5523    3.7476    2.4622 C   0  0  0  0  0  0  0  0  0  0  0  0
    2.4601    2.6573    1.6418 C   0  0  0  0  0  0  0  0  0  0  0  0
    1.1388    2.4671    0.9559 C   0  0  0  0  0  0  0  0  0  0  0  0
    1.0774    1.4399    0.2037 C   0  0  0  0  0  0  0  0  0  0  0  0
   -0.1016    0.9956   -0.5981 C   0  0  0  0  0  0  0  0  0  0  0  0
   -0.2404   -0.4402   -0.8580 C   0  0  0  0  0  0  0  0  0  0  0  0
   -1.3757   -0.9018   -0.0240 C   0  0  2  0  0  0  0  0  0  0  0  0
   -2.6484   -0.2329   -0.2016 C   0  0  0  0  0  0  0  0  0  0  0  0
   -3.5334   -0.1389    0.9291 C   0  0  0  0  0  0  0  0  0  0  0  0
   -4.7798    0.4186    0.7726 C   0  0  0  0  0  0  0  0  0  0  0  0
   -5.2511    0.9239   -0.4778 C   0  0  0  0  0  0  0  0  0  0  0  0
   -6.4784    1.4986   -0.6778 O   0  0  0  0  0  0  0  0  0  0  0  0
   -4.3398    0.7937   -1.4890 C   0  0  0  0  0  0  0  0  0  0  0  0
   -3.1087    0.2458   -1.3648 C   0  0  0  0  0  0  0  0  0  0  0  0
   -2.2543    0.1918   -2.6071 C   0  0  0  0  0  0  0  0  0  0  0  0
   -0.9841   -0.7230    1.4672 N   0  0  0  0  0  0  0  0  0  0  0  0
    0.2759   -1.1004    1.8686 C   0  0  0  0  0  0  0  0  0  0  0  0
    1.1078   -1.5865    0.9795 N   0  0  0  0  0  0  0  0  0  0  0  0
    2.0307   -1.6595    0.1385 C   0  0  0  0  0  0  0  0  0  0  0  0
    2.0854   -3.1356   -0.4357 C   0  0  2  0  0  0  0  0  0  0  0  0
    3.2943   -3.1506   -1.3782 C   0  0  0  0  0  0  0  0  0  0  0  0
    0.8525   -2.7683   -1.5391 C   0  0  0  0  0  0  0  0  0  0  0  0
    0.3858   -3.8487   -1.9633 C   0  0  0  0  0  0  0  0  0  0  0  0
    2.4504    0.5747    0.2159 C   0  0  0  0  0  0  0  0  0  0  0  0
    2.5604   -0.4939   -0.5334 C   0  0  0  0  0  0  0  0  0  0  0  0
    2.8650   -0.4832   -2.0126 N   0  0  0  0  0  0  0  0  0  0  0  0
    1.4506   -0.7323   -2.7286 C   0  0  0  0  0  0  0  0  0  0  0  0
    0.6011   -1.3205   -1.7326 C   0  0  0  0  0  0  0  0  0  0  0  0
  1  2  1  0
  2  3  1  0
  3  4  2  3
  4  5  1  0
  5  6  2  3
  6  7  1  0
  7  8  2  3
  8  9  1  0
  9 10  1  6
 10 11  2  0
 11 12  1  0
 12 13  2  0
 13 14  1  0
 13 15  1  0
 15 16  2  0
 16 17  1  0
  9 18  1  0
 18 19  2  3
 19 20  1  0
 20 21  2  3
 21 22  1  0
 22 23  1  6
 22 24  1  0
 24 25  2  0
  6 26  1  0
 26 27  2  3
 27 28  1  0
 28 29  1  0
 29 30  2  0
 30  8  1  0
 16 10  1  0
 27 21  1  0
 30 24  1  0
M  END
>  <fragInfo>  (1) 
5 6 7 8 9 18 19 20 21 22 23 24 25 26 27 28 29 30
1 2
3 4
10 11 12 13 14 15 16 17


>  <torsionInfo>  (1) 
4 5 2 0
9 10 0 3
2 3 1 2


>  <atomInfo>  (1) 
1  0.07660055C 
2  -0.5043674OA
3  0.08243133C 
4  -0.0269573C 
5  -0.0518494C 
6  -0.0230345C 
7  -0.0485119C 
8  -0.0094265C 
9  0.10264999C 
10 -0.0158092A 
11 -0.0525990A 
12 -0.0198437A 
13 0.11536277A 
14 -0.5079561OA
15 -0.0169289A 
16 -0.0417511A 
17 -0.0392709C 
18 -0.2605709NA
19 0.11097079C 
20 -0.2390490NA
21 0.07281014C 
22 0.02569312C 
23 -0.0526837C 
24 -0.0372406C 
25 -0.0944954C 
26 -0.0294396C 
27 0.06111663C 
28 -0.3595579N 
29 0.00897653C 
30 -0.0005767C 


$$$$
