
     RDKit          3D

 31 32  0  0  0  0  0  0  0  0999 V2000
   -3.6124   -1.3080   -0.8298 C   0  0  0  0  0  0  0  0  0  0  0  0
   -4.5024   -1.6277    0.2222 O   0  0  0  0  0  0  0  0  0  0  0  0
   -4.3685   -1.0379    1.4619 C   0  0  0  0  0  0  0  0  0  0  0  0
   -5.0212   -1.4843    2.4263 O   0  0  0  0  0  0  0  0  0  0  0  0
   -3.4446    0.1088    1.5822 C   0  0  0  0  0  3  0  0  0  0  0  0
   -3.4074    0.9151    0.3392 C   0  0  0  0  0  0  0  0  0  0  0  0
   -3.3172    0.1588   -0.9346 C   0  0  2  0  0  0  0  0  0  0  0  0
   -4.0985    0.7730   -1.9023 O   0  0  0  0  0  0  0  0  0  0  0  0
   -5.4484    0.7714   -1.6364 C   0  0  0  0  0  0  0  0  0  0  0  0
   -5.7643    1.4877   -0.3634 C   0  0  0  0  0  0  0  0  0  0  0  0
   -5.3154    2.9318   -0.4372 C   0  0  0  0  0  2  0  0  0  0  0  0
   -1.9859    0.2679   -1.3929 O   0  0  0  0  0  0  0  0  0  0  0  0
   -1.2279   -0.6628    0.0876 S   0  0  1  0  0  0  0  0  0  0  0  0
   -0.1422   -1.8439   -0.5457 C   0  0  0  0  0  0  0  0  0  0  0  0
    1.0417   -1.4809   -0.8691 N   0  0  0  0  0  0  0  0  0  0  0  0
    2.0138   -2.3671   -1.3981 C   0  0  0  0  0  0  0  0  0  0  0  0
    2.3876   -3.4062   -0.4833 N   0  0  0  0  0  0  0  0  0  0  0  0
    2.4131   -2.8747    0.8531 C   0  0  0  0  0  0  0  0  0  0  0  0
    3.8370   -2.4990    1.2119 C   0  0  0  0  0  0  0  0  0  0  0  0
    3.9472   -0.7676    1.6764 S   0  0  0  0  0  0  0  0  0  0  0  0
    5.6647   -0.3797    1.9741 C   0  0  0  0  0  0  0  0  0  0  0  0
    6.4390    0.0876    0.9964 C   0  0  0  0  0  0  0  0  0  0  0  0
    5.9306    0.2969   -0.3241 N   0  0  0  0  0  0  0  0  0  0  0  0
    5.6110    1.6308   -0.7230 C   0  0  0  0  0  0  0  0  0  0  0  0
    4.0944    1.8327   -0.7090 C   0  0  0  0  0  0  0  0  0  0  0  0
    3.8247    2.9526    0.3001 C   0  0  0  0  0  0  0  0  0  0  0  0
    2.3449    3.0765    0.5328 C   0  0  0  0  0  0  0  0  0  0  0  0
    1.8359    1.8182    1.0288 N   0  0  0  0  0  0  0  0  0  0  0  0
    0.7726    1.3580    0.1334 C   0  0  0  0  0  0  0  0  0  0  0  0
   -0.2060    0.5483    0.9115 C   0  0  0  0  0  0  0  0  0  0  0  0
   -0.2959    0.7238    2.1012 O   0  0  0  0  0  0  0  0  0  0  0  0
  1  2  1  0
  2  3  1  0
  3  4  2  0
  3  5  1  0
  5  6  1  0
  6  7  1  0
  7  8  1  6
  8  9  1  0
  9 10  1  0
 10 11  1  0
  7 12  1  0
 13 12  1  6
 13 14  1  0
 14 15  2  3
 15 16  1  0
 16 17  1  0
 17 18  1  0
 18 19  1  0
 19 20  1  0
 20 21  1  0
 21 22  2  3
 22 23  1  0
 23 24  1  0
 24 25  1  0
 25 26  1  0
 26 27  1  0
 27 28  1  0
 28 29  1  0
 29 30  1  0
 30 31  2  0
  7  1  1  0
 30 13  1  0
M  RAD  2   5   2  11   3
M  END
>  <fragInfo>  (1) 
13 14 15 16 17 18 19 20 21 22 23 24 25 26 27 28 29 30 31
1 2 3 4 5 6 7
8
9
10 11
12


>  <torsionInfo>  (1) 
12 13 5 0
7 8 1 2
7 12 1 5
8 9 2 3
9 10 3 4


>  <atomInfo>  (1) 
1  0.14613399C 
2  -0.4596658OA
3  0.30972298C 
4  -0.2519251OA
5  0.07562623C 
6  0.02010896C 
7  0.21454550C 
8  -0.3461279OA
9  0.05048586C 
10 -0.0260640C 
11 -0.0328296C 
12 -0.2895648OA
13 -0.0446359S 
14 0.06535094C 
15 -0.2702306NA
16 0.08907136C 
17 -0.2974758NA
18 0.00625032C 
19 0.01007403C 
20 -0.1313038SA
21 -0.0134352C 
22 0.00280612C 
23 -0.3904817N 
24 0.01416118C 
25 -0.0346100C 
26 -0.0389844C 
27 -0.0043692C 
28 -0.3092454NA
29 0.06593279C 
30 0.20975464C 
31 -0.2850486OA


$$$$
