
     RDKit          3D

 28 28  0  0  0  0  0  0  0  0999 V2000
    5.4520   -0.5588    1.9384 C   0  0  0  0  0  0  0  0  0  0  0  0
    6.4261   -0.8711    0.7960 C   0  0  0  0  0  0  0  0  0  0  0  0
    7.1746    0.4050    0.4417 C   0  0  0  0  0  0  0  0  0  0  0  0
    5.6257   -1.2818   -0.4135 C   0  0  0  0  0  0  0  0  0  0  0  0
    4.7202   -0.1429   -0.7883 C   0  0  0  0  0  0  0  0  0  0  0  0
    3.7938    0.1543    0.3870 C   0  0  0  0  0  0  0  0  0  0  0  0
    2.9090    1.3131   -0.0622 C   0  0  1  0  0  0  0  0  0  0  0  0
    3.8088    2.4778   -0.3814 C   0  0  0  0  0  2  0  0  0  0  0  0
    2.1293    0.8394   -1.2687 C   0  0  0  0  0  0  0  0  0  0  0  0
    1.2123    1.8836   -1.8193 C   0  0  0  0  0  0  0  0  0  0  0  0
    0.1753    2.3604   -0.8448 C   0  0  0  0  0  3  0  0  0  0  0  0
   -0.7288    1.2432   -0.3643 C   0  0  2  0  0  0  0  0  0  0  0  0
   -1.7168    1.8612    0.6036 C   0  0  0  0  0  2  0  0  0  0  0  0
    0.0835    0.2360    0.4173 C   0  0  0  0  0  0  0  0  0  0  0  0
   -0.5912   -1.1001    0.5333 C   0  0  0  0  0  0  0  0  0  0  0  0
   -1.6252   -1.1712    1.6066 C   0  0  2  0  0  0  0  0  0  0  0  0
   -3.0185   -1.3541    1.1073 C   0  0  0  0  0  3  0  0  0  0  0  0
   -4.0198   -0.4219    1.7114 C   0  0  0  0  0  0  0  0  0  0  0  0
   -4.8232    0.3452    0.7197 C   0  0  0  0  0  0  0  0  0  0  0  0
   -5.2662   -0.3977   -0.3577 O   0  0  0  0  0  0  0  0  0  0  0  0
   -4.3488   -1.2771   -0.8646 C   0  0  0  0  0  0  0  0  0  0  0  0
   -4.0313   -1.0714   -2.1907 O   0  0  0  0  0  0  0  0  0  0  0  0
   -3.7220    0.2362   -2.4999 C   0  0  0  0  0  0  0  0  0  0  0  0
   -2.9671    0.9345   -1.4166 C   0  0  0  0  0  0  0  0  0  0  0  0
   -1.4694    0.6465   -1.5153 C   0  0  2  0  0  0  0  0  0  0  0  0
   -1.1870   -0.8013   -1.7515 C   0  0  0  0  0  2  0  0  0  0  0  0
   -1.4823   -0.1382    2.6771 C   0  0  0  0  0  0  0  0  0  0  0  0
   -2.5133   -0.3331    3.5996 O   0  0  0  0  0  1  0  0  0  0  0  0
  1  2  1  0
  2  3  1  0
  2  4  1  0
  4  5  1  0
  5  6  1  0
  6  7  1  0
  7  8  1  6
  7  9  1  0
  9 10  1  0
 10 11  1  0
 11 12  1  0
 12 13  1  1
 12 14  1  0
 14 15  1  0
 15 16  1  0
 16 17  1  0
 17 18  1  0
 18 19  1  0
 19 20  1  0
 20 21  1  0
 21 22  1  0
 22 23  1  0
 23 24  1  0
 24 25  1  0
 25 26  1  1
 16 27  1  6
 27 28  1  0
 25 12  1  0
M  CHG  1  28  -1
M  RAD  5   8   3  11   2  13   3  17   2  26   3
M  END
>  <fragInfo>  (1) 
12 13 14 15 16 17 18 19 20 21 22 23 24 25 26
1 2 3
4
5
6
7 8
9
10
11
27 28


>  <torsionInfo>  (1) 
11 12 8 0
16 27 0 9
2 4 1 2
4 5 2 3
5 6 3 4
6 7 4 5
7 9 5 6
9 10 6 7
10 11 7 8


>  <atomInfo>  (1) 
1  -0.0627736C 
2  -0.0471324C 
3  -0.0627736C 
4  -0.0509641C 
5  -0.0527880C 
6  -0.0501518C 
7  -0.0380032C 
8  -0.0318005C 
9  -0.0498666C 
10 -0.0493357C 
11 -0.0317812C 
12 -0.0200040C 
13 -0.0278189C 
14 -0.0465290C 
15 -0.0508965C 
16 -0.0535886C 
17 -0.0345324C 
18 -0.0261501C 
19 0.04971764C 
20 -0.3554204OA
21 0.14620202C 
22 -0.3554202OA
23 0.04972933C 
24 -0.0258051C 
25 -0.0295832C 
26 -0.0311197C 
27 -0.1367297C 
28 -0.8542374OA


$$$$
