
     RDKit          3D

 29 31  0  0  0  0  0  0  0  0999 V2000
    6.6911    2.2762    0.1337 C   0  0  0  0  0  0  0  0  0  0  0  0
    6.1019    0.9436    0.4876 C   0  0  0  0  0  0  0  0  0  0  0  0
    6.5721    0.4018    1.8008 C   0  0  0  0  0  0  0  0  0  0  0  0
    4.5928    0.9255    0.3589 C   0  0  0  0  0  0  0  0  0  0  0  0
    4.1357   -0.4824    0.7474 C   0  0  0  0  0  0  0  0  0  0  0  0
    2.6462   -0.5270    0.6286 C   0  0  0  0  0  0  0  0  0  0  0  0
    2.1566   -0.2305   -0.7648 C   0  0  1  0  0  0  0  0  0  0  0  0
    2.6825   -1.2078   -1.7771 C   0  0  0  0  0  0  0  0  0  0  0  0
    0.6560   -0.1206   -0.7643 C   0  0  1  0  0  0  0  0  0  0  0  0
    0.0805    0.1733   -2.1102 C   0  0  0  0  0  0  0  0  0  0  0  0
    0.2792    1.6552   -2.4171 C   0  0  0  0  0  0  0  0  0  0  0  0
   -0.9531    2.4617   -2.1821 C   0  0  1  0  0  0  0  0  0  0  0  0
   -2.2052    1.8436   -2.6967 C   0  0  0  0  0  0  0  0  0  0  0  0
   -1.0631    3.0315   -0.8021 C   0  0  0  0  0  3  0  0  0  0  0  0
   -1.8005    2.1717    0.1654 C   0  0  0  0  0  0  0  0  0  0  0  0
   -3.1673    1.7564   -0.3026 C   0  0  2  0  0  0  0  0  0  0  0  0
   -4.1544    2.9045   -0.3132 C   0  0  0  0  0  0  0  0  0  0  0  0
   -3.6528    0.6513    0.6411 C   0  0  0  0  0  0  0  0  0  0  0  0
   -4.0513   -0.5443   -0.1925 C   0  0  0  0  0  0  0  0  0  0  0  0
   -3.7285   -1.8509    0.4739 C   0  0  2  0  0  0  0  0  0  0  0  0
   -4.1165   -1.9144    1.7881 O   0  0  0  0  0  0  0  0  0  0  0  0
   -2.3005   -2.2771    0.2496 C   0  0  1  0  0  0  0  0  0  0  0  0
   -1.5069   -1.1605   -0.4468 C   0  0  0  0  0  0  0  0  0  0  0  0
   -0.0259   -1.2521   -0.0544 C   0  0  1  0  0  0  0  0  0  0  0  0
    0.4746   -2.4682   -0.4494 O   0  0  0  0  0  0  0  0  0  0  0  0
    0.1421   -1.0226    1.4559 C   0  0  0  0  0  0  0  0  0  0  0  0
   -1.1873   -1.2222    2.0555 C   0  0  2  0  0  0  0  0  0  0  0  0
   -1.7335   -2.2778    2.8233 C   0  0  0  0  0  0  0  0  0  0  0  0
   -1.5646   -2.6377    1.4635 C   0  0  1  0  0  0  0  0  0  0  0  0
  1  2  1  0
  2  3  1  0
  2  4  1  0
  4  5  1  0
  5  6  1  0
  6  7  1  0
  7  8  1  6
  7  9  1  0
  9 10  1  6
 10 11  1  0
 11 12  1  0
 12 13  1  1
 12 14  1  0
 14 15  1  0
 15 16  1  0
 16 17  1  1
 16 18  1  0
 18 19  1  0
 19 20  1  0
 20 21  1  1
 22 20  1  0
 22 23  1  1
 23 24  1  0
 24 25  1  6
 24 26  1  0
 27 26  1  1
 27 28  1  0
 29 28  1  1
 24  9  1  0
 29 22  1  0
 29 27  1  0
M  RAD  1  14   2
M  END
>  <fragInfo>  (1) 
9 10 11 12 13 14 15 16 17 18 19 20 21 22 23 24 25 26 27 28 29
1 2 3
4
5
6
7 8


>  <torsionInfo>  (1) 
7 9 5 0
2 4 1 2
4 5 2 3
5 6 3 4
6 7 4 5


>  <atomInfo>  (1) 
1  -0.0627736C 
2  -0.0471324C 
3  -0.0627736C 
4  -0.0509642C 
5  -0.0527966C 
6  -0.0503303C 
7  -0.0386942C 
8  -0.0621378C 
9  -0.0098126C 
10 -0.0471825C 
11 -0.0500560C 
12 -0.0411384C 
13 -0.0622339C 
14 -0.0354871C 
15 -0.0473227C 
16 -0.0439012C 
17 -0.0624975C 
18 -0.0482316C 
19 -0.0264676C 
20 0.05718735C 
21 -0.3928289OA
22 -0.0094104C 
23 -0.0182658C 
24 0.06843702C 
25 -0.3895703OA
26 -0.0207169C 
27 -0.0351846C 
28 -0.0465779C 
29 -0.0327797C 


$$$$
