
     RDKit          3D

 11 11  0  0  0  0  0  0  0  0999 V2000
   -2.1178    1.5405    0.4933 C   0  0  0  0  0  0  0  0  0  0  0  0
   -1.6480    1.2770   -0.9207 C   0  0  0  0  0  3  0  0  0  0  0  0
   -0.3855    0.4382   -0.9552 C   0  0  2  0  0  0  0  0  0  0  0  0
   -0.6824   -0.8735   -0.2882 C   0  0  2  0  0  0  0  0  0  0  0  0
   -1.9901   -1.3103   -0.5110 O   0  0  0  0  0  0  0  0  0  0  0  0
   -0.3682   -0.7426    1.1826 C   0  0  0  0  0  0  0  0  0  0  0  0
    0.9061   -1.2605    1.3812 O   0  0  0  0  0  0  0  0  0  0  0  0
    1.9127   -0.3386    1.1634 C   0  0  0  0  0  3  0  0  0  0  0  0
    1.7671    0.4418   -0.1005 C   0  0  1  0  0  0  0  0  0  0  0  0
    2.0376   -0.2768   -1.2485 O   0  0  0  0  0  0  0  0  0  0  0  0
    0.5685    1.1048   -0.1964 O   0  0  0  0  0  0  0  0  0  0  0  0
  1  2  1  0
  3  2  1  1
  3  4  1  0
  4  5  1  1
  4  6  1  0
  6  7  1  0
  7  8  1  0
  8  9  1  0
  9 10  1  6
  9 11  1  0
 11  3  1  0
M  RAD  2   2   2   8   2
M  END
>  <fragInfo>  (1) 
3 4 5 6 7 8 9 10 11
1 2


>  <torsionInfo>  (1) 
2 3 1 0


>  <atomInfo>  (1) 
1  -0.0595696C 
2  -0.0099078C 
3  0.09180744C 
4  0.10382886C 
5  -0.3879900OA
6  0.07591673C 
7  -0.3671920OA
8  0.13927267C 
9  0.18385904C 
10 -0.3657237OA
11 -0.3437011OA


$$$$
