
     RDKit          3D

 34 34  0  0  0  0  0  0  0  0999 V2000
   -7.8054    0.9993    1.4981 C   0  0  0  0  0  0  0  0  0  0  0  0
   -6.6904    1.0974    0.5092 C   0  0  1  0  0  0  0  0  0  0  0  0
   -5.5183    1.8718    1.0732 C   0  0  0  0  0  0  0  0  0  0  0  0
   -6.2976   -0.2001   -0.1155 C   0  0  0  0  0  0  0  0  0  0  0  0
   -6.8156   -1.4113    0.5881 C   0  0  0  0  0  0  0  0  0  0  0  0
   -5.7128   -2.4761    0.5262 C   0  0  0  0  0  0  0  0  0  0  0  0
   -4.4026   -1.7553    0.5031 C   0  0  1  0  0  0  0  0  0  0  0  0
   -3.3150   -2.4424    1.2675 C   0  0  0  0  0  0  0  0  0  0  0  0
   -3.9841   -1.3075   -0.8644 C   0  0  0  0  0  3  0  0  0  0  0  0
   -3.5040   -2.4550   -1.7277 C   0  0  0  0  0  0  0  0  0  0  0  0
   -2.2299   -3.0650   -1.2240 C   0  0  0  0  0  0  0  0  0  0  0  0
   -1.0578   -2.2140   -1.6389 C   0  0  2  0  0  0  0  0  0  0  0  0
    0.1127   -2.5698   -0.7182 C   0  0  0  0  0  0  0  0  0  0  0  0
   -1.3595   -0.7294   -1.4253 C   0  0  0  0  0  3  0  0  0  0  0  0
   -0.1108    0.0869   -1.5346 C   0  0  0  0  0  0  0  0  0  0  0  0
    0.0942    0.8601   -0.2553 C   0  0  2  0  0  0  0  0  0  0  0  0
    1.5729    1.0965    0.0197 C   0  0  0  0  0  3  0  0  0  0  0  0
    1.6610    1.8779    1.3230 C   0  0  0  0  0  0  0  0  0  0  0  0
    3.1045    2.1436    1.6500 C   0  0  0  0  0  0  0  0  0  0  0  0
    3.8541    0.8412    1.8026 C   0  0  0  0  0  0  0  0  0  0  0  0
    3.7678    0.0722    0.5069 C   0  0  0  0  0  0  0  0  0  0  0  0
    4.3892    0.9004   -0.6034 C   0  0  0  0  0  0  0  0  0  0  0  0
    5.7280    1.1155   -0.2207 O   0  0  0  0  0  0  0  0  0  0  0  0
    6.3294    1.8771   -1.2246 C   0  0  0  0  0  0  0  0  0  0  0  0
    7.7767    2.1174   -0.8243 C   0  0  0  0  0  0  0  0  0  0  0  0
    8.4882    0.7915   -0.6774 C   0  0  0  0  0  3  0  0  0  0  0  0
    7.8358   -0.0681    0.3790 C   0  0  0  0  0  0  0  0  0  0  0  0
    8.5757   -1.3702    0.4876 C   0  0  0  0  0  0  0  0  0  0  0  0
    7.9581   -2.2658    1.5346 C   0  0  0  0  0  0  0  0  0  0  0  0
   -0.5447    0.1952    0.9381 C   0  0  0  0  0  0  0  0  0  0  0  0
   -1.3330    1.2536    1.7021 C   0  0  0  0  0  0  0  0  0  0  0  0
   -2.8031    1.0959    1.4579 C   0  0  0  0  0  0  0  0  0  0  0  0
   -3.2506    1.8350    0.2458 C   0  0  0  0  0  0  0  0  0  0  0  0
   -4.5131    2.2014    0.0563 C   0  0  0  0  0  3  0  0  0  0  0  0
  2  1  1  1
  2  3  1  0
  2  4  1  0
  4  5  1  0
  5  6  1  0
  6  7  1  0
  7  8  1  6
  7  9  1  0
  9 10  1  0
 10 11  1  0
 11 12  1  0
 12 13  1  1
 12 14  1  0
 14 15  1  0
 15 16  1  0
 16 17  1  1
 17 18  1  0
 18 19  1  0
 19 20  1  0
 20 21  1  0
 21 22  1  0
 22 23  1  0
 23 24  1  0
 24 25  1  0
 25 26  1  0
 26 27  1  0
 27 28  1  0
 28 29  1  0
 16 30  1  0
 30 31  1  0
 31 32  1  0
 32 33  1  0
 33 34  2  3
 34  3  1  0
M  RAD  5   9   2  14   2  17   2  26   2  34   2
M  END
>  <fragInfo>  (1) 
1 2 3 4 5 6 7 8 9 10 11 12 13 14 15 16 30 31 32 33 34
17
18
19
20
21
22
23
24
25
26
27
28 29


>  <torsionInfo>  (1) 
16 17 0 1
17 18 1 2
18 19 2 3
19 20 3 4
20 21 4 5
21 22 5 6
22 23 6 7
23 24 7 8
24 25 8 9
25 26 9 10
26 27 10 11
27 28 11 12


>  <atomInfo>  (1) 
1  -0.0621917C 
2  -0.0402241C 
3  -0.0253556C 
4  -0.0503837C 
5  -0.0527768C 
6  -0.0504262C 
7  -0.0411603C 
8  -0.0622342C 
9  -0.0357403C 
10 -0.0496542C 
11 -0.0501520C 
12 -0.0411397C 
13 -0.0622339C 
14 -0.0354663C 
15 -0.0467857C 
16 -0.0380153C 
17 -0.0354664C 
18 -0.0499063C 
19 -0.0529373C 
20 -0.0511037C 
21 -0.0296034C 
22 0.04655364C 
23 -0.3814414OA
24 0.04682788C 
25 -0.0264879C 
26 -0.0363219C 
27 -0.0503595C 
28 -0.0558961C 
29 -0.0653720C 
30 -0.0498668C 
31 -0.0495292C 
32 -0.0344699C 
33 -0.0810425C 
34 -0.0488438C 


$$$$
