
     RDKit          3D

 15 14  0  0  0  0  0  0  0  0999 V2000
   -0.1288    1.8469    4.9434 C   0  0  0  0  0  0  0  0  0  0  0  0
    0.0006    1.4862    3.4984 C   0  0  0  0  0  0  0  0  0  0  0  0
   -1.1894    1.9121    2.6851 C   0  0  0  0  0  0  0  0  0  0  0  0
    0.2957    0.0095    3.2962 C   0  0  0  0  0  0  0  0  0  0  0  0
    0.3962   -0.1867    1.7772 C   0  0  0  0  0  0  0  0  0  0  0  0
    1.5274    0.7101    1.3187 C   0  0  0  0  0  0  0  0  0  0  0  0
    1.6504    0.5369   -0.1817 C   0  0  2  0  0  0  0  0  0  0  0  0
    2.7826    1.4356   -0.6344 C   0  0  0  0  0  0  0  0  0  0  0  0
    0.3512    0.9561   -0.7771 C   0  0  0  0  0  0  0  0  0  0  0  0
   -0.3713    0.1739   -1.5461 C   0  0  0  0  0  0  0  0  0  0  0  0
    0.0029   -1.1765   -1.9048 C   0  0  0  0  0  0  0  0  0  0  0  0
   -0.8013   -1.8745   -2.6863 C   0  0  0  0  0  0  0  0  0  0  0  0
   -0.3976   -3.2674   -3.0458 C   0  0  0  0  0  0  0  0  0  0  0  0
   -2.0689   -1.2906   -3.1918 C   0  0  0  0  0  0  0  0  0  0  0  0
   -2.0497   -1.2716   -4.5872 F   0  0  0  0  0  0  0  0  0  0  0  0
  1  2  1  0
  2  3  1  0
  2  4  1  0
  4  5  1  0
  5  6  1  0
  6  7  1  0
  7  8  1  6
  7  9  1  0
  9 10  2  3
 10 11  1  0
 11 12  2  3
 12 13  1  0
 12 14  1  0
 14 15  1  0
M  END
>  <fragInfo>  (1) 
1 2 3
4
5
6
7 8
9 10
11 12 13
14 15


>  <torsionInfo>  (1) 
2 4 0 1
4 5 1 2
5 6 2 3
6 7 3 4
7 9 4 5
10 11 5 6
12 14 6 7


>  <atomInfo>  (1) 
1  -0.0627736C 
2  -0.0471322C 
3  -0.0627736C 
4  -0.0509534C 
5  -0.0525119C 
6  -0.0472074C 
7  -0.0258839C 
8  -0.0589985C 
9  -0.0816942C 
10 -0.0659680C 
11 -0.0610587C 
12 -0.0426222C 
13 -0.0410389C 
14 0.11055274C 
15 -0.2462892F 


$$$$
