
     RDKit          3D

 27 29  0  0  0  0  0  0  0  0999 V2000
    6.3301   -0.4656    1.4003 C   0  0  0  0  0  0  0  0  0  0  0  0
    5.4421    0.1122    0.3404 C   0  0  0  0  0  0  0  0  0  0  0  0
    5.7686    1.1305   -0.3283 O   0  0  0  0  0  0  0  0  0  0  0  0
    4.2031   -0.4580    0.0451 O   0  0  0  0  0  0  0  0  0  0  0  0
    3.3810    0.0926   -0.9496 C   0  0  0  0  0  3  0  0  0  0  0  0
    2.4508    1.1198   -0.4338 C   0  0  0  0  0  0  0  0  0  0  0  0
    2.5940    1.5082    0.7237 O   0  0  0  0  0  0  0  0  0  0  0  0
    2.6825   -1.0259   -1.6718 C   0  0  0  0  0  0  0  0  0  0  0  0
    1.8246   -1.8689   -0.7786 C   0  0  0  0  0  0  0  0  0  0  0  0
    0.9698   -1.0567    0.1631 C   0  0  0  0  0  3  0  0  0  0  0  0
   -0.4563   -1.5542    0.0746 C   0  0  1  0  0  0  0  0  0  0  0  0
   -0.9683   -1.7519    1.4565 C   0  0  0  0  0  0  0  0  0  0  0  0
   -2.4626   -2.0647    1.3965 C   0  0  2  0  0  0  0  0  0  0  0  0
   -2.6186   -3.1110    0.2947 C   0  0  0  0  0  0  0  0  0  0  0  0
   -3.1093   -0.8277    0.8896 C   0  0  0  0  0  0  0  0  0  0  0  0
   -4.1982   -0.2832    1.4078 C   0  0  0  0  0  0  0  0  0  0  0  0
   -4.6986    0.9361    0.7818 C   0  0  0  0  0  0  0  0  0  0  0  0
   -5.1430    1.9252    1.4454 O   0  0  0  0  0  0  0  0  0  0  0  0
   -4.6728    0.9903   -0.7104 C   0  0  0  0  0  0  0  0  0  0  0  0
   -3.6339    0.0539   -1.2881 C   0  0  0  0  0  0  0  0  0  0  0  0
   -2.5138   -0.1448   -0.2673 C   0  0  1  0  0  0  0  0  0  0  0  0
   -2.1451    1.2706    0.2017 C   0  0  0  0  0  0  0  0  0  0  0  0
   -1.3150   -0.7829   -0.8381 C   0  0  1  0  0  0  0  0  0  0  0  0
   -0.5682    0.2258   -1.6826 C   0  0  0  0  0  0  0  0  0  0  0  0
    0.0543    1.2270   -0.7333 C   0  0  0  0  0  0  0  0  0  0  0  0
    1.3875    1.6416   -1.3204 C   0  0  0  0  0  3  0  0  0  0  0  0
    1.4151    3.1618   -1.4032 C   0  0  0  0  0  0  0  0  0  0  0  0
  1  2  1  0
  2  3  2  0
  2  4  1  0
  5  4  1  0
  5  6  1  0
  6  7  2  0
  5  8  1  0
  8  9  1  0
  9 10  1  0
 11 10  1  1
 11 12  1  0
 12 13  1  0
 13 14  1  6
 13 15  1  0
 15 16  2  0
 16 17  1  0
 17 18  2  0
 17 19  1  0
 19 20  1  0
 20 21  1  0
 21 22  1  1
 21 23  1  0
 23 24  1  1
 24 25  1  0
 25 26  1  0
 26 27  1  0
 26  6  1  0
 23 11  1  0
 21 15  1  0
M  RAD  3   5   2  10   2  26   2
M  END
>  <fragInfo>  (1) 
5 6 7 8 9 10 11 12 13 14 15 16 17 18 19 20 21 22 23 24 25 26 27
1 2 3
4


>  <torsionInfo>  (1) 
4 5 2 0
2 4 1 2


>  <atomInfo>  (1) 
1  0.03398655C 
2  0.30328795C 
3  -0.2525925OA
4  -0.4463264OA
5  0.21665784C 
6  0.18750470C 
7  -0.2943191OA
8  -0.0006908C 
9  -0.0454489C 
10 -0.0349811C 
11 -0.0340748C 
12 -0.0434984C 
13 -0.0218858C 
14 -0.0586962C 
15 -0.0576321C 
16 -0.0189598C 
17 0.15520763C 
18 -0.2948657OA
19 0.01101918C 
20 -0.0365410C 
21 -0.0073997C 
22 -0.0555569C 
23 -0.0290659C 
24 -0.0483589C 
25 -0.0394600C 
26 0.04300060C 
27 -0.0515211C 


$$$$
