
     RDKit          3D

 25 27  0  0  0  0  0  0  0  0999 V2000
   -3.2339    0.7152    1.7925 C   0  0  0  0  0  0  0  0  0  0  0  0
   -2.7297   -0.2452    0.7721 C   0  0  0  0  0  0  0  0  0  0  0  0
   -3.8611   -0.6585   -0.1789 C   0  0  0  0  0  0  0  0  0  0  0  0
   -2.1590   -1.5022    1.4452 C   0  0  0  0  0  0  0  0  0  0  0  0
   -0.6705   -1.3818    1.5607 C   0  0  0  0  0  0  0  0  0  0  0  0
    0.0701   -2.6479    1.2684 C   0  0  0  0  0  0  0  0  0  0  0  0
    1.5454   -2.3954    1.0872 C   0  0  1  0  0  0  0  0  0  0  0  0
    2.1035   -3.2370   -0.0366 C   0  0  0  0  0  2  0  0  0  0  0  0
    1.8833   -0.9728    0.8248 C   0  0  2  0  0  0  0  0  0  0  0  0
    1.3079   -0.0208    1.7903 C   0  0  0  0  0  0  0  0  0  0  0  0
    0.7882    1.0958    1.2970 C   0  0  0  0  0  0  0  0  0  0  0  0
    0.2041    2.0630    2.2643 C   0  0  0  0  0  3  0  0  0  0  0  0
   -1.1020    2.6276    1.6811 C   0  0  0  0  0  3  0  0  0  0  0  0
   -1.0405    2.7251    0.1990 C   0  0  0  0  0  0  0  0  0  0  0  0
   -1.7902    1.6872   -0.5626 C   0  0  2  0  0  0  0  0  0  0  0  0
   -1.6088    0.2781   -0.0931 C   0  0  2  0  0  0  0  0  0  0  0  0
   -1.6471   -0.5928   -1.3589 C   0  0  0  0  0  3  0  0  0  0  0  0
   -1.8108    0.3862   -2.4983 C   0  0  0  0  0  3  0  0  0  0  0  0
   -1.1017    1.5991   -1.9402 C   0  0  2  0  0  0  0  0  0  0  0  0
    0.3133    1.1829   -1.6249 C   0  0  0  0  0  0  0  0  0  0  0  0
    0.5711    0.0742   -1.0053 C   0  0  0  0  0  0  0  0  0  0  0  0
    1.8069   -0.5428   -0.5912 C   0  0  0  0  0  3  0  0  0  0  0  0
    2.9055    0.1528   -1.0447 O   0  0  0  0  0  0  0  0  0  0  0  0
    4.0677   -0.6287   -1.0439 C   0  0  0  0  0  0  0  0  0  0  0  0
    5.1883    0.2389   -1.5565 C   0  0  0  0  0  2  0  0  0  0  0  0
  1  2  1  0
  2  3  1  0
  2  4  1  0
  4  5  1  0
  5  6  1  0
  6  7  1  0
  7  8  1  6
  7  9  1  0
  9 10  1  0
 10 11  2  3
 11 12  1  0
 12 13  1  0
 13 14  1  0
 15 14  1  1
 15 16  1  0
 16 17  1  6
 17 18  1  0
 19 18  1  6
 19 20  1  0
 20 21  2  3
 21 22  1  0
 22 23  1  0
 23 24  1  0
 24 25  1  0
 16  2  1  0
  9 22  1  6
 19 15  1  0
M  RAD  7   8   3  12   2  13   2  17   2  18   2  22   2  25   3
M  END
>  <fragInfo>  (1) 
1 2 3 4 5 6 7 8 9 10 11 12 13 14 15 16 17 18 19 20 21 22
23
24 25


>  <torsionInfo>  (1) 
22 23 0 1
23 24 1 2


>  <atomInfo>  (1) 
1  -0.0596226C 
2  -0.0320183C 
3  -0.0596226C 
4  -0.0478286C 
5  -0.0524892C 
6  -0.0494564C 
7  -0.0284847C 
8  -0.0310693C 
9  0.01588392C 
10 -0.0814961C 
11 -0.0841235C 
12 -0.0136299C 
13 -0.0308084C 
14 -0.0458504C 
15 -0.0308936C 
16 -0.0294277C 
17 -0.0306435C 
18 -0.0277152C 
19 -0.0166810C 
20 -0.0818428C 
21 -0.0526983C 
22 0.12572615C 
23 -0.3665668OA
24 0.05149609C 
25 -0.0070055C 


$$$$
