
     RDKit          3D

 66 68  0  0  0  0  0  0  0  0999 V2000
   -2.4389   -2.0792   -0.6382 C   0  0  0  0  0  0  0  0  0  0  0  0
   -1.3098   -2.5512   -1.5383 C   0  0  1  0  0  0  0  0  0  0  0  0
   -1.9045   -2.7032   -2.9287 C   0  0  0  0  0  0  0  0  0  0  0  0
   -0.2159   -1.5293   -1.5373 C   0  0  0  0  0  0  0  0  0  0  0  0
   -0.3408   -0.5802   -2.7045 C   0  0  0  0  0  0  0  0  0  0  0  0
    0.6446    0.5453   -2.5936 C   0  0  0  0  0  0  0  0  0  0  0  0
    1.6585    0.4066   -3.7129 C   0  0  1  0  0  0  0  0  0  0  0  0
    2.5439    1.6199   -3.8257 C   0  0  0  0  0  0  0  0  0  0  0  0
    2.4728   -0.8639   -3.5313 C   0  0  0  0  0  3  0  0  0  0  0  0
    3.9499   -0.5594   -3.4639 C   0  0  0  0  0  0  0  0  0  0  0  0
    4.2215    0.3744   -2.2885 C   0  0  0  0  0  0  0  0  0  0  0  0
    4.1572   -0.4596   -1.0403 C   0  0  0  0  0  3  0  0  0  0  0  0
    4.8581   -1.7961   -1.2186 C   0  0  0  0  0  3  0  0  0  0  0  0
    4.9297   -2.5072    0.0958 C   0  0  0  0  0  2  0  0  0  0  0  0
    5.6443   -1.7487    1.1657 C   0  0  0  0  0  0  0  0  0  0  0  0
    7.0599   -1.3682    0.7871 C   0  0  1  0  0  0  0  0  0  0  0  0
    7.2178   -1.5955   -0.6857 C   0  0  0  0  0  0  0  0  0  0  0  0
    8.5630   -1.1933   -1.2082 C   0  0  1  0  0  0  0  0  0  0  0  0
    8.3505   -0.3441   -2.4438 C   0  0  0  0  0  0  0  0  0  0  0  0
    9.3417   -0.3703   -0.2099 C   0  0  2  0  0  0  0  0  0  0  0  0
    9.7775   -1.2505    0.9563 C   0  0  0  0  0  0  0  0  0  0  0  0
   10.3315   -0.3181    2.0130 C   0  0  1  0  0  0  0  0  0  0  0  0
   10.4379   -0.9613    3.2385 O   0  0  0  0  0  0  0  0  0  0  0  0
   11.6433    0.2526    1.5481 C   0  0  0  0  0  0  0  0  0  0  0  0
   11.5236    0.6258    0.0874 C   0  0  0  0  0  0  0  0  0  0  0  0
   11.6022    2.1243   -0.0501 C   0  0  2  0  0  0  0  0  0  0  0  0
   12.8438    2.6459    0.5983 C   0  0  0  0  0  0  0  0  0  0  0  0
   10.4495    2.7779    0.3115 O   0  0  0  0  0  0  0  0  0  0  0  0
    9.4174    1.8424    1.3057 S   0  0  0  0  0  0  0  0  0  0  0  0
    8.4022    0.7047    0.3228 C   0  0  2  0  0  0  0  0  0  0  0  0
    7.3968    0.0396    1.2020 C   0  0  0  0  0  3  0  0  0  0  0  0
    6.1645    0.8950    1.3808 C   0  0  0  0  0  0  0  0  0  0  0  0
    5.2562    0.3843    2.4499 C   0  0  0  0  0  3  0  0  0  0  0  0
    4.9042    1.4511    3.4327 C   0  0  0  0  0  0  0  0  0  0  0  0
    3.9133    2.4521    2.9347 C   0  0  0  0  0  0  0  0  0  0  0  0
    2.6721    1.8555    2.3515 C   0  0  0  0  0  3  0  0  0  0  0  0
    2.4287    0.5168    2.9969 C   0  0  0  0  0  3  0  0  0  0  0  0
    1.5758   -0.3847    2.1323 C   0  0  0  0  0  0  0  0  0  0  0  0
    0.1120   -0.1239    2.2654 C   0  0  0  0  0  0  0  0  0  0  0  0
   -0.2714    1.3129    1.9889 C   0  0  0  0  0  3  0  0  0  0  0  0
   -0.4648    1.6006    0.5319 C   0  0  0  0  0  3  0  0  0  0  0  0
   -1.5819    2.5810    0.2616 C   0  0  0  0  0  0  0  0  0  0  0  0
   -2.8589    1.8532   -0.1353 C   0  0  0  0  0  0  0  0  0  0  0  0
   -3.7928    1.6873    1.0294 C   0  0  0  0  0  0  0  0  0  0  0  0
   -5.2360    1.5917    0.6231 C   0  0  1  0  0  0  0  0  0  0  0  0
   -5.3857    1.0418   -0.7860 C   0  0  0  0  0  0  0  0  0  0  0  0
   -4.5359   -0.0832   -0.8638 O   0  0  0  0  0  0  0  0  0  0  0  0
   -4.3079   -0.4131   -2.1910 C   0  0  0  0  0  0  0  0  0  0  0  0
   -4.2237   -1.9210   -2.3985 C   0  0  0  0  0  0  0  0  0  0  0  0
   -3.7821   -2.5614   -1.1118 C   0  0  1  0  0  0  0  0  0  0  0  0
   -3.7701   -4.0672   -1.2596 C   0  0  0  0  0  0  0  0  0  0  0  0
   -6.0086    0.7174    1.6148 C   0  0  0  0  0  0  0  0  0  0  0  0
   -7.4437    0.6290    1.2010 C   0  0  0  0  0  0  0  0  0  0  0  0
   -7.5992    0.0199   -0.1860 C   0  0  0  0  0  0  0  0  0  0  0  0
   -9.0483   -0.0541   -0.5698 C   0  0  0  0  0  0  0  0  0  0  0  0
   -9.6750    1.3064   -0.5887 C   0  0  0  0  0  3  0  0  0  0  0  0
   -9.5739    1.9289    0.7804 C   0  0  0  0  0  0  0  0  0  0  0  0
  -10.2695    1.1192    1.8440 C   0  0  0  0  0  3  0  0  0  0  0  0
  -11.7325    0.9665    1.5468 C   0  0  0  0  0  0  0  0  0  0  0  0
  -12.3439    0.1453    2.6605 C   0  0  0  0  0  0  0  0  0  0  0  0
  -13.8200   -0.0106    2.3635 C   0  0  0  0  0  3  0  0  0  0  0  0
  -14.0655   -0.7090    1.0441 C   0  0  0  0  0  0  0  0  0  0  0  0
  -13.4547    0.0654   -0.1195 C   0  0  0  0  0  0  0  0  0  0  0  0
  -13.7785   -0.7500   -1.3717 C   0  0  0  0  0  0  0  0  0  0  0  0
  -15.2620   -0.8363   -1.4622 C   0  0  0  0  0  0  0  0  0  0  0  0
  -15.9696   -0.2295   -2.4035 C   0  0  0  0  0  3  0  0  0  0  0  0
  1  2  1  0
  2  3  1  6
  2  4  1  0
  4  5  1  0
  5  6  1  0
  6  7  1  0
  7  8  1  1
  7  9  1  0
  9 10  1  0
 10 11  1  0
 11 12  1  0
 12 13  1  0
 13 14  1  0
 14 15  1  0
 16 15  1  6
 16 17  1  0
 17 18  1  0
 18 19  1  6
 18 20  1  0
 20 21  1  1
 21 22  1  0
 22 23  1  1
 22 24  1  0
 24 25  1  0
 25 26  1  0
 26 27  1  1
 26 28  1  0
 28 29  1  0
 30 29  1  1
 30 31  1  0
 31 32  1  0
 32 33  1  0
 33 34  1  0
 34 35  1  0
 35 36  1  0
 36 37  1  0
 37 38  1  0
 38 39  1  0
 39 40  1  0
 40 41  1  0
 41 42  1  0
 42 43  1  0
 43 44  1  0
 44 45  1  0
 45 46  1  0
 46 47  1  0
 47 48  1  0
 48 49  1  0
 49 50  1  0
 50 51  1  6
 45 52  1  1
 52 53  1  0
 53 54  1  0
 54 55  1  0
 55 56  1  0
 56 57  1  0
 57 58  1  0
 58 59  1  0
 59 60  1  0
 60 61  1  0
 61 62  1  0
 62 63  1  0
 63 64  1  0
 64 65  1  0
 65 66  2  0
 50  1  1  0
 31 16  1  0
 30 20  1  0
M  RAD  8   9   2  12   2  13   2  14   3  31   2  33   2  36   2  37   2
M  RAD  6  40   2  41   2  56   2  58   2  61   2  66   2
M  END
>  <fragInfo>  (1) 
1 2 3 4 5 6 7 8 9 10 11 12 13 14 15 16 17 18 19 20 21 22 23 24 25 26 27 28 29 30 31 32 33 34 35 36 37 38 39 40 41 42 43 44 45 46 47 48 49 50 51
52
53
54
55
56
57
58
59
60
61
62
63
64
65 66


>  <torsionInfo>  (1) 
45 52 0 1
52 53 1 2
53 54 2 3
54 55 3 4
55 56 4 5
56 57 5 6
57 58 6 7
58 59 7 8
59 60 8 9
60 61 9 10
61 62 10 11
62 63 11 12
63 64 12 13
64 65 13 14


>  <atomInfo>  (1) 
1  -0.0480328C 
2  -0.0440251C 
3  -0.0624997C 
4  -0.0506910C 
5  -0.0527880C 
6  -0.0504264C 
7  -0.0411603C 
8  -0.0622342C 
9  -0.0357399C 
10 -0.0496334C 
11 -0.0495911C 
12 -0.0345659C 
13 -0.0278050C 
14 -0.0130476C 
15 -0.0427195C 
16 -0.0331536C 
17 -0.0469305C 
18 -0.0398932C 
19 -0.0621905C 
20 -0.0216118C 
21 -0.0227415C 
22 0.05439694C 
23 -0.3931178OA
24 -0.0244948C 
25 -0.0232740C 
26 0.06949003C 
27 -0.0373968C 
28 -0.3120295OA
29 -0.0044073SA
30 0.04076230C 
31 -0.0051218C 
32 -0.0424666C 
33 -0.0379507C 
34 -0.0498764C 
35 -0.0496229C 
36 -0.0351816C 
37 -0.0351815C 
38 -0.0496128C 
39 -0.0496128C 
40 -0.0351816C 
41 -0.0351919C 
42 -0.0498857C 
43 -0.0526728C 
44 -0.0482386C 
45 -0.0178407C 
46 0.04937664C 
47 -0.3811538OA
48 0.04682187C 
49 -0.0270065C 
50 -0.0418379C 
51 -0.0624150C 
52 -0.0482489C 
53 -0.0529471C 
54 -0.0530202C 
55 -0.0501723C 
56 -0.0383006C 
57 -0.0470607C 
58 -0.0382901C 
59 -0.0498985C 
60 -0.0499087C 
61 -0.0385629C 
62 -0.0498878C 
63 -0.0495397C 
64 -0.0347505C 
65 -0.0845477C 
66 -0.0665928C 


$$$$
