
     RDKit          2D

 60 61  0  0  0  0  0  0  0  0999 V2000
   -1.8169  -14.0389    0.0000 C   0  0  0  0  0  0  0  0  0  0  0  0
   -1.0362  -12.7581    0.0000 O   0  0  0  0  0  0  0  0  0  0  0  0
   -1.7550  -11.4416    0.0000 C   0  0  0  0  0  3  0  0  0  0  0  0
   -0.9743  -10.1607    0.0000 O   0  0  0  0  0  0  0  0  0  0  0  0
   -1.6932   -8.8442    0.0000 C   0  0  0  0  0  0  0  0  0  0  0  0
   -3.0986   -9.3684    0.0000 C   0  0  0  0  0  0  0  0  0  0  0  0
   -4.5948   -9.4754    0.0000 C   0  0  0  0  0  3  0  0  0  0  0  0
   -6.0605   -9.1566    0.0000 C   0  0  0  0  0  3  0  0  0  0  0  0
   -7.3771   -8.4377    0.0000 C   0  0  0  0  0  0  0  0  0  0  0  0
   -8.2760   -9.6385    0.0000 C   0  0  0  0  0  0  0  0  0  0  0  0
   -9.7654   -9.4604    0.0000 C   0  0  0  0  0  0  0  0  0  0  0  0
  -10.6643  -10.6613    0.0000 C   0  0  0  0  0  0  0  0  0  0  0  0
  -10.3558   -8.0816    0.0000 C   0  0  0  0  0  0  0  0  0  0  0  0
   -9.4569   -6.8807    0.0000 O   0  0  0  0  0  0  0  0  0  0  0  0
  -11.8452   -7.9035    0.0000 C   0  0  0  0  0  0  0  0  0  0  0  0
  -12.7441   -9.1043    0.0000 O   0  0  0  0  0  0  0  0  0  0  0  0
  -12.4357   -6.5246    0.0000 C   0  0  0  0  0  0  0  0  0  0  0  0
  -11.5368   -5.3238    0.0000 I   0  0  0  0  0  0  0  0  0  0  0  0
  -13.9251   -6.3465    0.0000 O   0  0  0  0  0  0  0  0  0  0  0  0
  -14.5156   -4.9676    0.0000 C   0  0  0  0  0  3  0  0  0  0  0  0
  -16.0050   -4.7895    0.0000 C   0  0  0  0  0  3  0  0  0  0  0  0
  -16.5954   -3.4106    0.0000 O   0  0  0  0  0  0  0  0  0  0  0  0
  -18.0848   -3.2326    0.0000 C   0  0  0  0  0  0  0  0  0  0  0  0
  -18.9837   -4.4334    0.0000 O   0  0  0  0  0  0  0  0  0  0  0  0
  -18.6753   -1.8537    0.0000 C   0  0  0  0  0  0  0  0  0  0  0  0
  -20.1647   -1.6756    0.0000 C   0  0  0  0  0  3  0  0  0  0  0  0
  -20.7552   -0.2967    0.0000 C   0  0  0  0  0  2  0  0  0  0  0  0
  -22.2446   -0.1186    0.0000 C   0  0  0  0  0  2  0  0  0  0  0  0
  -17.7764   -0.6529    0.0000 C   0  0  0  0  0  3  0  0  0  0  0  0
  -18.3669    0.7260    0.0000 C   0  0  0  0  0  0  0  0  0  0  0  0
  -17.4679    1.9268    0.0000 C   0  0  0  0  0  0  0  0  0  0  0  0
  -18.0584    3.3057    0.0000 C   0  0  0  0  0  3  0  0  0  0  0  0
  -17.1595    4.5065    0.0000 C   0  0  0  0  0  3  0  0  0  0  0  0
  -17.7500    5.8854    0.0000 O   0  0  0  0  0  0  0  0  0  0  0  0
  -19.8563    0.9041    0.0000 C   0  0  0  0  0  0  0  0  0  0  0  0
  -20.4467    2.2830    0.0000 O   0  0  0  0  0  0  0  0  0  0  0  0
  -21.9361    2.4611    0.0000 C   0  0  0  0  0  0  0  0  0  0  0  0
  -22.5266    3.8400    0.0000 C   0  0  0  0  0  2  0  0  0  0  0  0
  -22.8350    1.2603    0.0000 C   0  0  0  0  0  0  0  0  0  0  0  0
  -24.3244    1.4383    0.0000 C   0  0  0  0  0  2  0  0  0  0  0  0
   -0.4924   -7.9453    0.0000 O   0  0  0  0  0  0  0  0  0  0  0  0
    0.4065   -6.7445    0.0000 C   0  0  0  0  0  3  0  0  0  0  0  0
    0.9307   -5.3391    0.0000 O   0  0  0  0  0  0  0  0  0  0  0  0
    1.0377   -3.8429    0.0000 C   0  0  0  0  0  0  0  0  0  0  0  0
    2.5339   -3.7359    0.0000 C   0  0  0  0  0  2  0  0  0  0  0  0
    0.7189   -2.3772    0.0000 O   0  0  0  0  0  0  0  0  0  0  0  0
   -0.0000   -1.0607    0.0000 C   0  0  0  0  0  0  0  0  0  0  0  0
   -1.0607    0.0000    0.0000 N   0  0  0  0  0  0  0  0  0  0  0  0
   -2.3772    0.7189    0.0000 C   0  0  0  0  0  3  0  0  0  0  0  0
   -3.8429    1.0377    0.0000 O   0  0  0  0  0  0  0  0  0  0  0  0
   -5.3391    0.9307    0.0000 C   0  0  0  0  0  3  0  0  0  0  0  0
   -6.7445    0.4065    0.0000 C   0  0  0  0  0  3  0  0  0  0  0  0
   -7.9453   -0.4924    0.0000 N   0  0  0  0  0  0  0  0  0  0  0  0
   -8.8442   -1.6932    0.0000 C   0  0  0  0  0  3  0  0  0  0  0  0
   -9.3684   -3.0986    0.0000 C   0  0  0  0  0  3  0  0  0  0  0  0
   -9.4754   -4.5948    0.0000 C   0  0  0  0  0  3  0  0  0  0  0  0
   -9.1566   -6.0605    0.0000 C   0  0  0  0  0  3  0  0  0  0  0  0
   -8.4377   -7.3771    0.0000 O   0  0  0  0  0  0  0  0  0  0  0  0
    1.0607    0.0000    0.0000 C   0  0  0  0  0  0  0  0  0  0  0  0
    0.0000    1.0607    0.0000 O   0  0  0  0  0  0  0  0  0  0  0  0
  1  2  1  0
  2  3  1  0
  3  4  1  0
  5  4  1  6
  5  6  1  0
  6  7  1  0
  7  8  1  0
  8  9  1  0
  9 10  1  1
 10 11  1  0
 11 12  1  6
 11 13  1  0
 13 14  1  6
 13 15  1  0
 15 16  1  1
 15 17  1  0
 17 18  1  1
 17 19  1  0
 19 20  1  0
 20 21  1  0
 21 22  1  0
 22 23  1  0
 23 24  1  6
 23 25  1  0
 25 26  1  1
 26 27  1  0
 27 28  1  0
 25 29  1  0
 30 29  1  6
 30 31  1  0
 31 32  1  0
 32 33  1  0
 33 34  1  0
 30 35  1  0
 35 36  1  0
 36 37  1  0
 37 38  1  1
 37 39  1  0
 39 40  1  0
  5 41  1  0
 41 42  1  0
 42 43  1  0
 43 44  1  0
 44 45  1  1
 44 46  1  0
 46 47  1  0
 47 48  1  0
 48 49  1  0
 49 50  1  0
 50 51  1  0
 51 52  1  0
 52 53  1  0
 53 54  1  0
 54 55  1  0
 55 56  1  0
 56 57  1  0
 57 58  1  0
 47 59  1  6
 59 60  1  0
 58  9  1  0
 60 48  1  0
M  RAD  8   3   2   7   2   8   2  20   2  21   2  26   2  27   3  28   3
M  RAD  8  29   2  32   2  33   2  38   3  40   3  42   2  45   3  49   2
M  RAD  6  51   2  52   2  54   2  55   2  56   2  57   2
M  END
>  <fragInfo>  (1) 
5 6 7 8 9 41 42 43 44 45 46 47 48 49 50 51 52 53 54 55 56 57 58 59 60
1 2
3
4
10
11 12
13 14
15 16
17 18
19
20
21
22
23 24
25
26
27 28
29
30
31
32
33 34
35
36
37 38
39 40


>  <torsionInfo>  (1) 
4 5 3 0
9 10 0 4
2 3 1 2
3 4 2 3
10 11 4 5
11 13 5 6
13 15 6 7
15 17 7 8
17 19 8 9
19 20 9 10
20 21 10 11
21 22 11 12
22 23 12 13
23 25 13 14
25 26 14 15
25 29 14 17
26 27 15 16
29 30 17 18
30 31 18 19
30 35 18 22
31 32 19 20
32 33 20 21
35 36 22 23
36 37 23 24
37 39 24 25


>  <atomInfo>  (1) 
1  0.03885774C 
2  -0.3512727OA
3  0.21126448C 
4  -0.3183326OA
5  0.16422860C 
6  0.00211896C 
7  -0.0275072C 
8  -0.0060724C 
9  0.06180975C 
10 -0.0212681C 
11 -0.0129383C 
12 -0.0598400C 
13 0.08587634C 
14 -0.3900135OA
15 0.11540505C 
16 -0.3868401OA
17 0.13727834C 
18 -0.0480778I 
19 -0.3561597OA
20 0.11679037C 
21 0.11838189C 
22 -0.3437061OA
23 0.15807557C 
24 -0.3676956OA
25 0.01695701C 
26 -0.0224592C 
27 -0.0091423C 
28 -0.0268656C 
29 -0.0247461C 
30 -0.0138647C 
31 -0.0421684C 
32 -0.0069304C 
33 0.08332905C 
34 -0.3901202OA
35 0.05007153C 
36 -0.3775979OA
37 0.06132742C 
38 -0.0036185C 
39 -0.0230316C 
40 -0.0325227C 
41 -0.3182237OA
42 0.21408020C 
43 -0.3179480OA
44 0.16655882C 
45 0.02647129C 
46 -0.3291090OA
47 0.16406200C 
48 -0.1249151NA
49 0.17776174C 
50 -0.3488439OA
51 0.10460909C 
52 0.05429734C 
53 -0.3052892NA
54 0.02633372C 
55 -0.0138883C 
56 -0.0019387C 
57 0.08783572C 
58 -0.3716397OA
59 0.11078623C 
60 -0.2894202OA


$$$$
