
     RDKit          3D

 18 18  0  0  0  0  0  0  0  0999 V2000
   -5.4951    0.1473    1.1204 C   0  0  0  0  0  0  0  0  0  0  0  0
   -4.3313    0.2067    1.8342 O   0  0  0  0  0  0  0  0  0  0  0  0
   -3.2929   -0.3046    0.9717 C   0  0  0  0  0  3  0  0  0  0  0  0
   -2.1578   -0.3734    1.7961 O   0  0  0  0  0  0  0  0  0  0  0  0
   -1.0071   -0.1204    1.1386 C   0  0  2  0  0  0  0  0  0  0  0  0
   -0.5498    1.2040    1.7599 C   0  0  0  0  0  0  0  0  0  0  0  0
   -0.9452   -0.2412   -0.2663 C   0  0  1  0  0  0  0  0  0  0  0  0
   -1.9401    0.6676   -0.9712 C   0  0  0  0  0  3  0  0  0  0  0  0
   -1.5495    0.5858   -2.3968 C   0  0  0  0  0  3  0  0  0  0  0  0
   -0.0998    0.2769   -2.4477 C   0  0  0  0  0  0  0  0  0  0  0  0
    0.3008   -0.0456   -0.9957 C   0  0  2  0  0  0  0  0  0  0  0  0
    0.9204   -1.5010   -1.1880 C   0  0  0  0  0  0  0  0  0  0  0  0
    1.3862    0.8345   -0.6432 C   0  0  0  0  0  0  0  0  0  0  0  0
    2.1167    0.5542    0.6278 C   0  0  0  0  0  0  0  0  0  0  0  0
    3.6485    0.5100    0.2614 C   0  0  1  0  0  0  0  0  0  0  0  0
    4.3391    0.2853    1.4143 O   0  0  0  0  0  0  0  0  0  0  0  0
    3.7320   -0.7589   -0.6224 C   0  0  0  0  0  3  0  0  0  0  0  0
    4.9249   -0.6486   -1.3931 O   0  0  0  0  0  0  0  0  0  0  0  0
  1  2  1  0
  2  3  1  0
  3  4  1  0
  4  5  1  0
  5  6  1  6
  5  7  1  0
  7  8  1  6
  8  9  1  0
  9 10  1  0
 10 11  1  0
 11 12  1  6
 11 13  1  0
 13 14  1  0
 14 15  1  0
 15 16  1  1
 15 17  1  0
 17 18  1  0
 11  7  1  0
M  RAD  4   3   2   8   2   9   2  17   2
M  END
>  <fragInfo>  (1) 
7 8 9 10 11 12
1 2
3
4
5 6
13
14
15 16
17 18


>  <torsionInfo>  (1) 
5 7 4 0
11 13 0 5
2 3 1 2
3 4 2 3
4 5 3 4
13 14 5 6
14 15 6 7
15 17 7 8


>  <atomInfo>  (1) 
1  0.03885651C 
2  -0.3513313OA
3  0.20894066C 
4  -0.3445992OA
5  0.06167267C 
6  -0.0382446C 
7  -0.0063282C 
8  -0.0289617C 
9  -0.0342363C 
10 -0.0440682C 
11 -0.0266246C 
12 -0.0592596C 
13 -0.0449187C 
14 -0.0238131C 
15 0.08254933C 
16 -0.3903263OA
17 0.10821806C 
18 -0.3876110OA


$$$$
