
     RDKit          2D

 31 34  0  0  0  0  0  0  0  0999 V2000
   -0.0785   -4.3957    0.0000 C   0  0  0  0  0  0  0  0  0  0  0  0
    1.3847   -4.0657    0.0000 C   0  0  0  0  0  2  0  0  0  0  0  0
    2.5095   -1.4489    0.0000 C   0  0  0  0  0  0  0  0  0  0  0  0
    2.8978    0.0000    0.0000 C   0  0  0  0  0  0  0  0  0  0  0  0
    2.5095    1.4489    0.0000 C   0  0  0  0  0  0  0  0  0  0  0  0
    1.4489    2.5095    0.0000 N   0  0  0  0  0  0  0  0  0  0  0  0
    0.0000    2.8978    0.0000 C   0  0  0  0  0  0  0  0  0  0  0  0
   -1.4489    2.5095    0.0000 C   0  0  0  0  0  0  0  0  0  0  0  0
   -2.5095    1.4489    0.0000 C   0  0  0  0  0  0  0  0  0  0  0  0
   -2.8978    0.0000    0.0000 C   0  0  0  0  0  0  0  0  0  0  0  0
   -2.5095   -1.4489    0.0000 C   0  0  0  0  0  0  0  0  0  0  0  0
   -3.9384   -1.9053    0.0000 C   0  0  0  0  0  0  0  0  0  0  0  0
   -5.0581   -2.9035    0.0000 C   0  0  0  0  0  0  0  0  0  0  0  0
   -6.2672   -2.0158    0.0000 C   0  0  0  0  0  0  0  0  0  0  0  0
   -6.1030   -0.5248    0.0000 C   0  0  0  0  0  0  0  0  0  0  0  0
   -1.4489   -2.5095    0.0000 S   0  0  0  0  0  0  0  0  0  0  0  0
   -0.0000   -2.8978    0.0000 C   0  0  0  0  0  0  0  0  0  0  0  0
    1.4489   -2.5095    0.0000 C   0  0  0  0  0  0  0  0  0  0  0  0
    2.2658   -3.7676    0.0000 C   0  0  0  0  0  0  0  0  0  0  0  0
    1.3219   -4.9333    0.0000 C   0  0  0  0  0  0  0  0  0  0  0  0
    1.1378   -6.5218    0.0000 C   0  0  0  0  0  0  0  0  0  0  0  0
    0.2501   -7.7309    0.0000 O   0  0  0  0  0  0  0  0  0  0  0  0
   -1.0526   -8.4745    0.0000 C   0  0  0  0  0  0  0  0  0  0  0  0
   -2.5451   -8.6239    0.0000 S   0  0  0  0  0  0  0  0  0  0  0  0
   -3.9694   -8.1533    0.0000 C   0  0  0  0  0  0  0  0  0  0  0  0
   -5.0791   -7.1441    0.0000 C   0  0  0  0  0  0  0  0  0  0  0  0
   -5.6824   -5.7707    0.0000 C   0  0  0  0  0  0  0  0  0  0  0  0
   -5.6750   -4.2708    0.0000 S   0  0  0  0  0  0  0  0  0  0  0  0
   -7.1406   -3.9516    0.0000 C   0  0  0  0  0  0  0  0  0  0  0  0
   -8.1499   -5.0613    0.0000 O   0  0  0  0  0  0  0  0  0  0  0  0
   -9.6155   -4.7422    0.0000 C   0  0  0  0  0  0  0  0  0  0  0  0
  1  2  1  0
  2  3  1  0
  3  4  1  0
  4  5  1  0
  5  6  2  3
  6  7  1  0
  7  8  1  0
  8  9  2  3
  9 10  1  0
 10 11  2  3
 11 12  1  0
 12 13  1  0
 13 14  2  3
 14 15  1  0
 11 16  1  0
 16 17  1  0
 17 18  1  0
 18 19  1  0
 19 20  1  0
 20 21  1  0
 21 22  1  0
 22 23  1  0
 23 24  1  0
 24 25  2  3
 25 26  1  0
 26 27  2  3
 27 28  1  0
 28 29  2  3
 29 30  1  0
 30 31  1  0
  1 17  2  0
 20  1  1  0
 18  3  1  0
 28 13  1  0
M  RAD  1   2   3
M  END
>  <fragInfo>  (1) 
1 2 3 4 5 6 7 8 9 10 11 12 13 14 15 16 17 18 19 20 21 22 23 24 25 26 27 28 29
30 31


>  <torsionInfo>  (1) 
29 30 0 1


>  <atomInfo>  (1) 
1  -0.0462805C 
2  0.01762722C 
3  -0.0177887C 
4  -0.0135020C 
5  -0.0006066C 
6  -0.2933943NA
7  0.05689378C 
8  -0.0632320C 
9  -0.0636305C 
10 -0.0522370C 
11 -0.0053957C 
12 0.01224343C 
13 -0.0010072C 
14 -0.0747906C 
15 -0.0456293C 
16 -0.0983326SA
17 -0.0068931C 
18 -0.0051096C 
19 -0.0366554C 
20 0.00562352C 
21 0.05466069C 
22 -0.3678187OA
23 0.09459510C 
24 -0.2340229S 
25 -0.0267307C 
26 -0.0446199C 
27 -0.0145316C 
28 -0.1600953S 
29 0.12732476C 
30 -0.4945327OA
31 0.07778652C 


$$$$
