
     RDKit          3D

 39 41  0  0  0  0  0  0  0  0999 V2000
   -8.2993   -0.5863   -2.8612 C   0  0  0  0  0  0  0  0  0  0  0  0
   -7.2607   -0.3321   -1.8222 C   0  0  0  0  0  0  0  0  0  0  0  0
   -7.5558   -0.4911   -0.6052 O   0  0  0  0  0  0  0  0  0  0  0  0
   -5.9732    0.0740   -2.1194 O   0  0  0  0  0  0  0  0  0  0  0  0
   -5.0441    0.2950   -1.0772 C   0  0  0  0  0  3  0  0  0  0  0  0
   -4.2975   -0.9332   -0.7593 C   0  0  0  0  0  0  0  0  0  0  0  0
   -4.6564   -1.6934    0.4692 C   0  0  0  0  0  0  0  0  0  0  0  0
   -3.4080   -1.3271   -1.4744 O   0  0  0  0  0  0  0  0  0  0  0  0
   -4.1196    1.4255   -1.3916 C   0  0  0  0  0  0  0  0  0  0  0  0
   -3.1921    1.8082   -0.2903 C   0  0  0  0  0  0  0  0  0  0  0  0
   -2.3009    0.6486    0.0984 C   0  0  0  0  0  3  0  0  0  0  0  0
   -1.3820    1.0215    1.1746 C   0  0  1  0  0  0  0  0  0  0  0  0
   -1.9094    1.4720    2.4656 C   0  0  0  0  0  0  0  0  0  0  0  0
   -2.5823    0.3531    3.2520 C   0  0  2  0  0  0  0  0  0  0  0  0
   -2.1160    0.3644    4.6839 C   0  0  0  0  0  0  0  0  0  0  0  0
   -2.1359   -0.9056    2.6041 C   0  0  0  0  0  0  0  0  0  0  0  0
   -1.0162   -1.4605    3.0987 C   0  0  0  0  0  0  0  0  0  0  0  0
   -0.4630   -2.6812    2.5709 C   0  0  0  0  0  0  0  0  0  0  0  0
   -0.0376   -3.5571    3.3528 O   0  0  0  0  0  0  0  0  0  0  0  0
   -0.3893   -2.9171    1.1120 C   0  0  0  0  0  0  0  0  0  0  0  0
   -0.5131   -1.6172    0.3441 C   0  0  0  0  0  0  0  0  0  0  0  0
    0.5076   -0.6097    0.7361 C   0  0  2  0  0  0  0  0  0  0  0  0
    1.5220   -1.0823    1.7739 C   0  0  0  0  0  0  0  0  0  0  0  0
    0.0301    0.7644    0.9953 C   0  0  2  0  0  0  0  0  0  0  0  0
    0.9902    1.5718    1.7835 C   0  0  0  0  0  0  0  0  0  0  0  0
    2.4211    1.1708    1.5019 C   0  0  0  0  0  0  0  0  0  0  0  0
    2.5504   -0.2335    1.0151 C   0  0  0  0  0  3  0  0  0  0  0  0
    1.6951   -0.4999   -0.2326 C   0  0  2  0  0  0  0  0  0  0  0  0
    1.6093    0.7730   -1.0490 C   0  0  0  0  0  0  0  0  0  0  0  0
    2.7522    0.8978   -1.9957 C   0  0  0  0  0  0  0  0  0  0  0  0
    4.0561    0.9189   -1.2490 C   0  0  0  0  0  0  0  0  0  0  0  0
    5.1988    1.0482   -2.2436 C   0  0  2  0  0  0  0  0  0  0  0  0
    5.2209   -0.0749   -3.1917 C   0  0  0  0  0  0  0  0  0  0  0  0
    5.4541    0.0950   -4.3799 O   0  0  0  0  0  0  0  0  0  0  0  0
    6.5134    1.2570   -1.5298 C   0  0  0  0  0  0  0  0  0  0  0  0
    6.8704    0.1921   -0.6434 N   0  0  0  0  0  3  0  0  0  0  0  0
    5.7374   -0.5399   -0.1206 C   0  0  0  0  0  0  0  0  0  0  0  0
    7.6393   -0.7634   -1.4102 C   0  0  0  0  0  0  0  0  0  0  0  0
    7.8839   -0.6016   -2.5858 O   0  0  0  0  0  0  0  0  0  0  0  0
  1  2  1  0
  2  3  2  0
  2  4  1  0
  4  5  1  0
  5  6  1  0
  6  7  1  0
  6  8  2  0
  5  9  1  0
  9 10  1  0
 10 11  1  0
 12 11  1  1
 12 13  1  0
 13 14  1  0
 14 15  1  1
 14 16  1  0
 16 17  2  3
 17 18  1  0
 18 19  2  0
 18 20  1  0
 20 21  1  0
 22 21  1  6
 22 23  1  0
 22 24  1  0
 24 25  1  1
 25 26  1  0
 26 27  1  0
 27 28  1  0
 28 29  1  6
 29 30  1  0
 30 31  1  0
 32 31  1  1
 32 33  1  0
 33 34  2  0
 32 35  1  0
 35 36  1  0
 36 37  1  0
 36 38  1  0
 38 39  2  0
 24 12  1  0
 28 22  1  0
 27 23  1  0
M  CHG  1  36   1
M  RAD  4   5   2  11   2  27   2  36   2
M  END
>  <fragInfo>  (1) 
12 13 14 15 16 17 18 19 20 21 22 23 24 25 26 27 28
1 2 3
4
5
6 7 8
9
10
11
29
30
31
32
33 34
35
36 37
38 39


>  <torsionInfo>  (1) 
11 12 7 0
28 29 0 8
2 4 1 2
4 5 2 3
5 6 3 4
5 9 3 5
9 10 5 6
10 11 6 7
29 30 8 9
30 31 9 10
31 32 10 11
32 33 11 12
32 35 11 13
35 36 13 14
36 38 14 15


>  <atomInfo>  (1) 
1  0.03398655C 
2  0.30328735C 
3  -0.2525925OA
4  -0.4463661OA
5  0.21571334C 
6  0.17762091C 
7  -0.0012134C 
8  -0.2953001OA
9  -0.0007294C 
10 -0.0454497C 
11 -0.0349925C 
12 -0.0343735C 
13 -0.0437983C 
14 -0.0254737C 
15 -0.0589858C 
16 -0.0781595C 
17 -0.0227259C 
18 0.15490244C 
19 -0.2948772OA
20 0.01072091C 
21 -0.0397472C 
22 -0.0222706C 
23 -0.0404868C 
24 -0.0322693C 
25 -0.0490697C 
26 -0.0464516C 
27 -0.0198613C 
28 -0.0291988C 
29 -0.0493265C 
30 -0.0520968C 
31 -0.0381010C 
32 0.06899532C 
33 0.12841526C 
34 -0.3028393OA
35 0.14010223C 
36 -0.1073461N 
37 0.12089019C 
38 0.34829042C 
39 -0.2283968OA


$$$$
