
     RDKit          3D

 20 21  0  0  0  0  0  0  0  0999 V2000
    5.5735    1.1448    1.5619 C   0  0  0  0  0  0  0  0  0  0  0  0
    5.9916    1.8227    0.4362 C   0  0  0  0  0  0  0  0  0  0  0  0
    5.4220    1.5510   -0.7851 C   0  0  0  0  0  0  0  0  0  0  0  0
    4.4265    0.6047   -0.9283 C   0  0  0  0  0  0  0  0  0  0  0  0
    4.0088   -0.0728    0.1947 C   0  0  0  0  0  0  0  0  0  0  0  0
    4.5859    0.2075    1.4126 C   0  0  0  0  0  0  0  0  0  0  0  0
    2.9327   -1.0956    0.0518 C   0  0  0  0  0  0  0  0  0  0  0  0
    1.6045   -0.3656    0.2675 C   0  0  0  0  0  0  0  0  0  0  0  0
    0.5054   -1.3804    0.1281 C   0  0  0  0  0  0  0  0  0  0  0  0
   -0.8343   -0.6902    0.3417 C   0  0  1  0  0  0  0  0  0  0  0  0
   -0.9931    0.3601   -0.6671 C   0  0  0  0  0  0  0  0  0  0  0  0
   -2.2507    0.6848   -1.0349 C   0  0  0  0  0  0  0  0  0  0  0  0
   -3.3406   -0.0143   -0.4191 C   0  0  1  0  0  0  0  0  0  0  0  0
   -4.9449    0.6351   -0.4515 S   0  0  0  0  0  0  0  0  0  0  0  0
   -5.1528    2.1257    0.4709 N   0  0  0  0  0  0  0  0  0  0  0  0
   -4.2402    3.1678    0.0815 C   0  0  0  0  0  0  0  0  0  0  0  0
   -1.9199   -1.6398    0.4064 N   0  0  0  0  0  0  0  0  0  0  0  0
   -3.1158   -1.3281    0.0462 N   0  0  0  0  0  4  0  0  0  0  0  0
   -4.1230   -2.3187    0.1397 C   0  0  0  0  0  0  0  0  0  0  0  0
   -4.1358   -3.3987   -0.5643 N   0  0  0  0  0  0  0  0  0  0  0  0
  1  2  2  0
  2  3  1  0
  3  4  2  0
  4  5  1  0
  5  6  2  0
  5  7  1  0
  7  8  1  0
  8  9  1  0
 10  9  1  6
 10 11  1  0
 11 12  2  0
 12 13  1  0
 13 14  1  6
 14 15  1  0
 15 16  1  0
 10 17  1  0
 17 18  2  0
 18 19  1  0
 19 20  2  0
  6  1  1  0
 18 13  1  0
M  CHG  1  18   1
M  END
>  <fragInfo>  (1) 
1 2 3 4 5 6
7
8
9
10 11 12 13 17 18
14
15 16
19 20


>  <torsionInfo>  (1) 
5 7 0 1
7 8 1 2
8 9 2 3
9 10 3 4
13 14 4 5
18 19 4 7
14 15 5 6


>  <atomInfo>  (1) 
1  -0.0619942A 
2  -0.0622487A 
3  -0.0619942A 
4  -0.0590451A 
5  -0.0480179A 
6  -0.0590451A 
7  -0.0277956C 
8  -0.0467417C 
9  -0.0229236C 
10 0.10873039C 
11 -0.0551800C 
12 -0.0279032C 
13 0.19984477C 
14 -0.0257632SA
15 -0.2633192NA
16 -0.0054789C 
17 -0.1137056NA
18 -0.1227738N 
19 0.29839457C 
20 -0.1048587NA


$$$$
