
     RDKit          3D

 36 36  0  0  0  0  0  0  0  0999 V2000
   -5.4441   -1.6084   -0.6929 C   0  0  0  0  0  0  0  0  0  0  0  0
   -4.0846   -2.1945   -0.6694 C   0  0  0  0  0  0  0  0  0  0  0  0
   -3.0066   -1.4556   -0.4794 C   0  0  0  0  0  0  0  0  0  0  0  0
   -3.1844   -0.0234   -0.2894 C   0  0  0  0  0  0  0  0  0  0  0  0
   -2.1457    0.7728   -0.0943 C   0  0  0  0  0  0  0  0  0  0  0  0
   -2.4175    2.2299    0.0918 C   0  0  1  0  0  0  0  0  0  0  0  0
   -1.4161    2.9507   -0.5795 O   0  0  0  0  0  0  0  0  0  0  0  0
   -3.7211    2.5736   -0.5805 C   0  0  0  0  0  0  0  0  0  0  0  0
   -4.8648    1.7780    0.0160 C   0  0  1  0  0  0  0  0  0  0  0  0
   -5.0258    2.0219    1.3749 O   0  0  0  0  0  0  0  0  0  0  0  0
   -6.1223    1.9695   -0.7772 C   0  0  0  0  0  0  0  0  0  0  0  0
   -6.5286    3.3894   -0.8060 C   0  0  0  0  0  0  0  0  0  0  0  0
   -5.8334    4.2431   -0.2067 O   0  0  0  0  0  0  0  0  0  0  0  0
   -7.6767    3.7202   -1.5042 O   0  0  0  0  0  1  0  0  0  0  0  0
   -1.6937   -2.0834   -0.4655 C   0  0  0  0  0  0  0  0  0  0  0  0
   -1.5708   -3.5231   -0.6608 C   0  0  0  0  0  0  0  0  0  0  0  0
   -0.3475   -4.1605   -0.6555 C   0  0  0  0  0  0  0  0  0  0  0  0
   -0.2220   -5.5228   -0.8396 C   0  0  0  0  0  0  0  0  0  0  0  0
   -1.3317   -6.3166   -1.0398 C   0  0  0  0  0  0  0  0  0  0  0  0
   -1.2015   -7.6554   -1.2202 F   0  0  0  0  0  0  0  0  0  0  0  0
   -2.5576   -5.6850   -1.0462 C   0  0  0  0  0  0  0  0  0  0  0  0
   -2.6783   -4.3197   -0.8613 C   0  0  0  0  0  0  0  0  0  0  0  0
   -0.6481   -1.3010   -0.2718 C   0  0  0  0  0  0  0  0  0  0  0  0
    0.7174   -1.8422   -0.2414 C   0  0  0  0  0  0  0  0  0  0  0  0
    1.7099   -1.0201   -0.0462 C   0  0  0  0  0  0  0  0  0  0  0  0
    3.0971   -1.3932    0.0098 C   0  0  0  0  0  0  0  0  0  0  0  0
    4.0182   -0.4681    0.2141 C   0  0  0  0  0  0  0  0  0  0  0  0
    3.6533    0.9233    0.3835 C   0  0  0  0  0  0  0  0  0  0  0  0
    4.5918    1.8147    0.5844 C   0  0  0  0  0  0  0  0  0  0  0  0
    5.9843    1.4268    0.6387 C   0  0  0  0  0  0  0  0  0  0  0  0
    6.9511    2.3062    0.8401 C   0  0  0  0  0  0  0  0  0  0  0  0
    6.5924    3.6990    1.0102 C   0  0  0  0  0  0  0  0  0  0  0  0
    7.4862    4.6523    1.2164 C   0  0  0  0  0  0  0  0  0  0  0  0
    8.9417    4.4222    1.2982 C   0  0  0  0  0  0  0  0  0  0  0  0
    9.2731    2.9387    1.1131 C   0  0  0  0  0  0  0  0  0  0  0  0
   10.7069    2.7408    1.1978 N   0  0  0  0  0  0  0  0  0  0  0  0
  1  2  1  0
  2  3  2  3
  3  4  1  0
  4  5  2  3
  5  6  1  0
  6  7  1  6
  6  8  1  0
  8  9  1  0
  9 10  1  1
  9 11  1  0
 11 12  1  0
 12 13  2  0
 12 14  1  0
  3 15  1  0
 15 16  1  0
 16 17  2  0
 17 18  1  0
 18 19  2  0
 19 20  1  0
 19 21  1  0
 21 22  2  0
 15 23  2  3
 23 24  1  0
 24 25  2  3
 25 26  1  0
 26 27  2  3
 27 28  1  0
 28 29  2  3
 29 30  1  0
 30 31  2  3
 31 32  1  0
 32 33  2  3
 33 34  1  0
 34 35  1  0
 35 36  1  0
 22 16  1  0
M  CHG  1  14  -1
M  END
>  <fragInfo>  (1) 
16 17 18 19 20 21 22
1 2 3
4 5
6 7
8
9 10
11
12 13 14
15 23
24 25
26 27
28 29
30 31
32 33
34
35 36


>  <torsionInfo>  (1) 
15 16 8 0
3 4 1 2
3 15 1 8
5 6 2 3
6 8 3 4
8 9 4 5
9 11 5 6
11 12 6 7
23 24 8 9
25 26 9 10
27 28 10 11
29 30 11 12
31 32 12 13
33 34 13 14
34 35 14 15


>  <atomInfo>  (1) 
1  -0.0460677C 
2  -0.0797710C 
3  -0.0222984C 
4  -0.0561429C 
5  -0.0555054C 
6  0.07484440C 
7  -0.3889349OA
8  0.00322776C 
9  0.06196204C 
10 -0.3926245OA
11 0.01315211C 
12 0.04395647C 
13 -0.5500681OA
14 -0.5500681OA
15 -0.0114808C 
16 -0.0176076A 
17 -0.0514530A 
18 -0.0257063A 
19 0.12275073A 
20 -0.2070117F 
21 -0.0257063A 
22 -0.0514530A 
23 -0.0537918C 
24 -0.0616299C 
25 -0.0622466C 
26 -0.0622682C 
27 -0.0622685C 
28 -0.0622685C 
29 -0.0622687C 
30 -0.0622797C 
31 -0.0625846C 
32 -0.0662280C 
33 -0.0832824C 
34 -0.0223766C 
35 -0.0042505C 
36 -0.3301648NA


$$$$
