
     RDKit          3D

 10 10  0  0  0  0  0  0  0  0999 V2000
   -2.7888   -1.0517    0.0947 C   0  0  0  0  0  0  0  0  0  0  0  0
   -1.4279   -0.4486   -0.0442 C   0  0  1  0  0  0  0  0  0  0  0  0
   -1.2395    0.7782    0.8451 C   0  0  0  0  0  0  0  0  0  0  0  0
    0.0297    1.4628    0.3287 C   0  0  2  0  0  0  0  0  0  0  0  0
   -0.1427    1.6900   -1.0441 O   0  0  0  0  0  0  0  0  0  0  0  0
    1.1470    0.4407    0.4747 C   0  0  2  0  0  0  0  0  0  0  0  0
    2.3032    0.9790   -0.0623 O   0  0  0  0  0  0  0  0  0  0  0  0
    0.7625   -0.7566   -0.3723 C   0  0  1  0  0  0  0  0  0  0  0  0
    1.7547   -1.7383   -0.3438 O   0  0  0  0  0  0  0  0  0  0  0  0
   -0.3982   -1.3555    0.1234 O   0  0  0  0  0  0  0  0  0  0  0  0
  2  1  1  1
  2  3  1  0
  3  4  1  0
  4  5  1  6
  4  6  1  0
  6  7  1  6
  6  8  1  0
  8  9  1  1
  8 10  1  0
 10  2  1  0
M  END
>  <fragInfo>  (1) 
1 2 3 4 5 6 7 8 9 10


>  <torsionInfo>  (1) 


>  <atomInfo>  (1) 
1  -0.0384524C 
2  0.06051769C 
3  0.00209127C 
4  0.08734061C 
5  -0.3901216OA
6  0.13048807C 
7  -0.3851029OA
8  0.18319208C 
9  -0.3657360OA
10 -0.3469784OA


$$$$
