
     RDKit          3D

 11 11  0  0  0  0  0  0  0  0999 V2000
    2.9810    0.4908    1.1563 O   0  0  0  0  0  0  0  0  0  0  0  0
    2.4096    1.0138   -0.0118 C   0  0  0  0  0  0  0  0  0  0  0  0
    0.9513    0.7353    0.0274 C   0  0  1  0  0  0  0  0  0  0  0  0
    0.2122    1.2063   -1.0988 N   0  0  0  0  0  0  0  0  0  0  0  0
   -1.1837    1.2242   -0.8011 C   0  0  0  0  0  0  0  0  0  0  0  0
   -1.7329   -0.0355   -0.2414 C   0  0  2  0  0  0  0  0  0  0  0  0
   -2.8604    0.3059    0.5415 O   0  0  0  0  0  0  0  0  0  0  0  0
   -0.8063   -0.8026    0.6343 C   0  0  1  0  0  0  0  0  0  0  0  0
   -1.2547   -2.1156    0.7563 O   0  0  0  0  0  0  0  0  0  0  0  0
    0.6377   -0.7534    0.1759 C   0  0  1  0  0  0  0  0  0  0  0  0
    0.6463   -1.2694   -1.1388 O   0  0  0  0  0  0  0  0  0  0  0  0
  1  2  1  0
  3  2  1  6
  3  4  1  0
  4  5  1  0
  5  6  1  0
  6  7  1  1
  6  8  1  0
  8  9  1  6
  8 10  1  0
 10 11  1  6
 10  3  1  0
M  END
>  <fragInfo>  (1) 
3 4 5 6 7 8 9 10 11
1 2


>  <torsionInfo>  (1) 
2 3 1 0


>  <atomInfo>  (1) 
1  -0.3946490OA
2  0.06105637C 
3  0.05902457C 
4  -0.3067635NA
5  0.02436730C 
6  0.09488935C 
7  -0.3889905OA
8  0.10855016C 
9  -0.3875979OA
10 0.09995681C 
11 -0.3885947OA


$$$$
