
     RDKit          3D

 25 28  0  0  0  0  0  0  0  0999 V2000
    0.1506   -0.1536   -0.0402 C   0  0  2  0  0  0  0  0  0  0  0  0
    0.1094   -0.8825   -1.2740 N   0  0  0  0  0  0  0  0  0  0  0  0
    1.4092   -1.5741   -1.5037 C   0  0  0  0  0  0  0  0  0  0  0  0
   -0.7474   -1.2084   -2.4043 C   0  0  0  0  0  0  0  0  0  0  0  0
   -2.1025   -1.4404   -2.4043 C   0  0  0  0  0  0  0  0  0  0  0  0
   -3.0915   -1.1397   -1.2161 C   0  0  0  0  0  0  0  0  0  0  0  0
   -2.6192   -1.0121   -0.0196 C   0  0  0  0  0  0  0  0  0  0  0  0
   -3.2511    0.3132    0.3901 C   0  0  0  0  0  0  0  0  0  0  0  0
   -2.3733    1.1823    1.0896 C   0  0  0  0  0  0  0  0  0  0  0  0
   -1.3374    2.0055    0.3808 C   0  0  0  0  0  0  0  0  0  0  0  0
   -0.2331    1.3060   -0.1562 C   0  0  0  0  0  0  0  0  0  0  0  0
    0.3761    2.3763   -0.8073 N   0  0  0  0  0  0  0  0  0  0  0  0
    1.5354    2.4292   -1.6431 C   0  0  1  0  0  0  0  0  0  0  0  0
    2.1941    3.6541   -1.4841 F   0  0  0  0  0  0  0  0  0  0  0  0
    2.4409    1.2999   -1.5062 C   0  0  0  0  0  0  0  0  0  0  0  0
    2.4914    0.2976   -0.6900 C   0  0  0  0  0  0  0  0  0  0  0  0
    1.6175   -0.0707    0.4333 C   0  0  2  0  0  0  0  0  0  0  0  0
    1.9969   -1.3691    1.0482 C   0  0  0  0  0  0  0  0  0  0  0  0
    3.2436   -1.7288    0.9412 C   0  0  0  0  0  0  0  0  0  0  0  0
    4.3018   -2.4423    0.7111 C   0  0  0  0  0  0  0  0  0  0  0  0
   -1.6300   -1.8062    0.8159 C   0  0  0  0  0  0  0  0  0  0  0  0
   -0.5140   -0.8500    1.1029 C   0  0  2  0  0  0  0  0  0  0  0  0
   -0.2446   -0.4705    2.4760 C   0  0  0  0  0  0  0  0  0  0  0  0
   -1.4168    0.1970    3.2027 C   0  0  0  0  0  0  0  0  0  0  0  0
   -2.3058    1.0873    2.5575 C   0  0  0  0  0  0  0  0  0  0  0  0
  1  2  1  6
  2  3  1  0
  2  4  1  0
  4  5  2  3
  5  6  1  0
  6  7  2  3
  7  8  1  0
  8  9  2  3
  9 10  1  0
 10 11  2  3
 11 12  1  0
 12 13  1  0
 13 14  1  1
 13 15  1  0
 15 16  2  0
 16 17  1  0
 17 18  1  6
 18 19  2  0
 19 20  2  0
  7 21  1  0
 21 22  1  0
 22 23  1  1
 23 24  1  0
 24 25  2  3
 17  1  1  0
 11  1  1  0
 22  1  1  0
 25  9  1  0
M  END
>  <fragInfo>  (1) 
1 2 3 4 5 6 7 8 9 10 11 12 13 14 15 16 17 21 22 23 24 25
18 19 20


>  <torsionInfo>  (1) 
17 18 0 1


>  <atomInfo>  (1) 
1  0.09271335C 
2  -0.3680623N 
3  0.00691704C 
4  -0.0003253C 
5  -0.0460031C 
6  -0.0575701C 
7  -0.0469796C 
8  -0.0516953C 
9  -0.0238982C 
10 -0.0333407C 
11 0.04108719C 
12 -0.3541277N 
13 0.18839896C 
14 -0.2190908F 
15 -0.0337625C 
16 -0.0735220C 
17 0.03167091C 
18 -0.0332841C 
19 -0.1323409C 
20 -0.0568735C 
21 -0.0220470C 
22 -0.0039287C 
23 -0.0288967C 
24 -0.0835498C 
25 -0.0589030C 


$$$$
