
     RDKit          3D

 28 30  0  0  0  0  0  0  0  0999 V2000
   -4.9944   -1.8954    1.3513 O   0  0  0  0  0  0  0  0  0  0  0  0
   -3.8691   -1.7311    0.7336 C   0  0  0  0  0  0  0  0  0  0  0  0
   -3.2439   -2.9504    0.4119 N   0  0  0  0  0  0  0  0  0  0  0  0
   -2.7875   -3.3584   -0.9111 C   0  0  0  0  0  0  0  0  0  0  0  0
   -1.3168   -2.9883   -1.0223 C   0  0  0  0  0  0  0  0  0  0  0  0
   -0.8822   -1.8345   -0.4503 C   0  0  0  0  0  0  0  0  0  0  0  0
    0.4258   -1.4613   -0.5006 C   0  0  0  0  0  0  0  0  0  0  0  0
    1.3035   -2.2894   -1.1518 C   0  0  0  0  0  0  0  0  0  0  0  0
    2.6509   -1.9698   -1.2403 O   0  0  0  0  0  0  0  0  0  0  0  0
    0.9148   -3.4754   -1.7526 C   0  0  0  0  0  0  0  0  0  0  0  0
   -0.4295   -3.8017   -1.6678 C   0  0  0  0  0  0  0  0  0  0  0  0
   -3.3104   -0.4951    0.4072 C   0  0  0  0  0  0  0  0  0  0  0  0
   -2.6891    0.4036    1.0721 N   0  0  0  0  0  0  0  0  0  0  0  0
   -2.1777    1.6486    0.5521 C   0  0  0  0  0  0  0  0  0  0  0  0
   -3.0050    2.7517    0.4786 C   0  0  0  0  0  0  0  0  0  0  0  0
   -2.6677    3.9961    0.0239 C   0  0  0  0  0  0  0  0  0  0  0  0
   -1.3539    4.1254   -0.3978 C   0  0  0  0  0  0  0  0  0  0  0  0
   -0.7429    5.6476   -1.0132 Cl  0  0  0  0  0  0  0  0  0  0  0  0
   -0.5099    3.0768   -0.3444 C   0  0  0  0  0  0  0  0  0  0  0  0
   -0.8406    1.7835    0.1230 C   0  0  0  0  0  0  0  0  0  0  0  0
    0.0904    0.7616    0.1576 C   0  0  0  0  0  0  0  0  0  0  0  0
    0.8581   -0.1758    0.1519 C   0  0  0  0  0  0  0  0  0  0  0  0
    2.2085   -0.3573    0.6844 N   0  0  0  0  0  0  0  0  0  0  0  0
    3.1998    0.4539    0.0510 C   0  0  0  0  0  0  0  0  0  0  0  0
    4.4411    0.2740    0.4356 C   0  0  0  0  0  0  0  0  0  0  0  0
    5.6061    1.0015   -0.0861 C   0  0  0  0  0  0  0  0  0  0  0  0
    6.2615    1.7074    0.9695 N   0  0  0  0  0  3  0  0  0  0  0  0
    6.8603    1.1520    1.9368 C   0  0  0  0  0  0  0  0  0  0  0  0
  1  2  2  0
  2  3  1  0
  3  4  1  0
  4  5  1  0
  5  6  1  0
  6  7  2  0
  7  8  1  0
  8  9  1  0
  8 10  2  0
 10 11  1  0
  2 12  1  0
 12 13  2  3
 13 14  1  0
 14 15  2  0
 15 16  1  0
 16 17  2  0
 17 18  1  0
 17 19  1  0
 19 20  2  0
 20 21  1  0
 21 22  2  3
 22 23  1  0
 23 24  1  0
 24 25  2  3
 25 26  1  0
 26 27  1  0
 27 28  2  0
 11  5  2  0
 22  7  1  0
 20 14  1  0
M  CHG  1  27   1
M  RAD  1  27   2
M  END
>  <fragInfo>  (1) 
1 2 3 4 5 6 7 8 9 10 11 12 13 14 15 16 17 18 19 20 21 22
23
24 25
26
27 28


>  <torsionInfo>  (1) 
22 23 0 1
23 24 1 2
25 26 2 3
26 27 3 4


>  <atomInfo>  (1) 
1  -0.2682222OA
2  0.26221091C 
3  -0.3471548N 
4  0.04311980C 
5  -0.0278454A 
6  -0.0441559A 
7  0.04011588A 
8  0.12441092A 
9  -0.5072522OA
10 -0.0191764A 
11 -0.0535378A 
12 0.09235274C 
13 -0.2505200NA
14 0.07056401A 
15 -0.0343308A 
16 -0.0413389A 
17 0.04130144A 
18 -0.0843190Cl
19 -0.0340066A 
20 0.00366591A 
21 -0.0283800C 
22 0.04971695C 
23 -0.3611443N 
24 0.00351934C 
25 0.00270301C 
26 0.22933336C 
27 0.01251087N 
28 0.19958408C 


$$$$
