
     RDKit          3D

 26 26  0  0  0  0  0  0  0  0999 V2000
   -3.5875   -1.7799   -0.8492 C   0  0  0  0  0  0  0  0  0  0  0  0
   -3.1262   -0.3505   -0.8880 C   0  0  1  0  0  0  0  0  0  0  0  0
   -3.8467    0.4902   -1.8548 C   0  0  0  0  0  0  0  0  0  0  0  0
   -5.1970    0.8459   -1.2194 C   0  0  2  0  0  0  0  0  0  0  0  0
   -6.0684    1.3921   -2.1318 O   0  0  0  0  0  0  0  0  0  0  0  0
   -4.8443    1.8092   -0.0872 C   0  0  2  0  0  0  0  0  0  0  0  0
   -4.0077    2.7784   -0.6670 O   0  0  0  0  0  0  0  0  0  0  0  0
   -4.0774    1.0875    0.9736 C   0  0  1  0  0  0  0  0  0  0  0  0
   -4.9296    0.4173    1.8450 O   0  0  0  0  0  0  0  0  0  0  0  0
   -2.9771    0.2563    0.4926 C   0  0  1  0  0  0  0  0  0  0  0  0
   -2.6464   -0.8811    1.3831 N   0  0  0  0  0  0  0  0  0  0  0  0
   -1.3616   -1.3858    1.0367 C   0  0  0  0  0  3  0  0  0  0  0  0
   -0.8748   -0.7522   -0.2795 C   0  0  0  0  0  0  0  0  0  0  0  0
    0.6463   -1.1874   -0.3868 C   0  0  1  0  0  0  0  0  0  0  0  0
    0.5808   -2.5215   -0.4546 O   0  0  0  0  0  0  0  0  0  0  0  0
    0.9717   -0.4826   -1.8118 C   0  0  0  0  0  0  0  0  0  0  0  0
    1.3916   -0.5574    0.4732 O   0  0  0  0  0  0  0  0  0  0  0  0
    2.6412   -1.1915    0.2641 C   0  0  1  0  0  0  0  0  0  0  0  0
    3.0004   -1.0949   -1.1693 O   0  0  0  0  0  0  0  0  0  0  0  0
    3.7807   -0.0128    0.7127 C   0  0  2  0  0  0  0  0  0  0  0  0
    3.4476    0.9038   -0.2726 O   0  0  0  0  0  0  0  0  0  0  0  0
    5.0231   -0.7869    0.4868 C   0  0  0  0  0  3  0  0  0  0  0  0
    5.8991   -0.1899   -0.5262 C   0  0  0  0  0  0  0  0  0  0  0  0
    5.7530    1.2719   -0.2286 O   0  0  0  0  0  0  0  0  0  0  0  0
    7.1040    1.5170    0.0296 O   0  0  0  0  0  0  0  0  0  0  0  0
    7.3054    0.4048    0.8823 O   0  0  0  0  0  0  0  0  0  0  0  0
  2  1  1  1
  2  3  1  0
  3  4  1  0
  4  5  1  6
  4  6  1  0
  6  7  1  6
  6  8  1  0
  8  9  1  6
  8 10  1  0
 10 11  1  1
 11 12  1  0
 12 13  1  0
 13 14  1  0
 14 15  1  0
 14 16  1  6
 14 17  1  0
 17 18  1  0
 18 19  1  6
 18 20  1  0
 20 21  1  6
 20 22  1  0
 22 23  1  0
 23 24  1  0
 24 25  1  0
 25 26  1  0
 10  2  1  0
M  RAD  2  12   2  22   2
M  END
>  <fragInfo>  (1) 
1 2 3 4 5 6 7 8 9 10
11
12
13
14 15 16
17
18 19
20 21
22
23
24
25 26


>  <torsionInfo>  (1) 
10 11 0 1
11 12 1 2
12 13 2 3
13 14 3 4
14 17 4 5
17 18 5 6
18 20 6 7
20 22 7 8
22 23 8 9
23 24 9 10
24 25 10 11


>  <atomInfo>  (1) 
1  -0.0608233C 
2  -0.0236285C 
3  -0.0201755C 
4  0.08280077C 
5  -0.3903155OA
6  0.10722522C 
7  -0.3876533OA
8  0.09792916C 
9  -0.3886791OA
10 0.03839284C 
11 -0.3065524NA
12 0.02777224C 
13 0.01796589C 
14 0.16693037C 
15 -0.3654907OA
16 -0.0104501C 
17 -0.3190343OA
18 0.18404372C 
19 -0.3657187OA
20 0.11035673C 
21 -0.3874364OA
22 0.02436544C 
23 0.09126334C 
24 -0.2059656OA
25 -0.0709159OA
26 -0.2211437OA


$$$$
