
     RDKit          3D

 29 32  0  0  0  0  0  0  0  0999 V2000
   -1.2236    4.8137   -0.9584 C   0  0  0  0  0  0  0  0  0  0  0  0
   -1.5859    3.4353   -0.9049 O   0  0  0  0  0  0  0  0  0  0  0  0
   -2.0698    2.8377    0.2523 C   0  0  0  0  0  0  0  0  0  0  0  0
   -2.1750    3.5834    1.2680 O   0  0  0  0  0  0  0  0  0  0  0  0
   -2.4158    1.4242    0.2184 C   0  0  1  0  0  0  0  0  0  0  0  0
   -3.4755    1.0527   -0.7577 C   0  0  0  0  0  0  0  0  0  0  0  0
   -4.4698    0.0378   -0.3536 C   0  0  0  0  0  0  0  0  0  0  0  0
   -3.9740   -1.4224   -0.5131 C   0  0  0  0  0  0  0  0  0  0  0  0
   -2.7005   -1.4659    0.1395 C   0  0  2  0  0  0  0  0  0  0  0  0
   -1.6900   -0.6361   -0.6838 C   0  0  0  0  0  0  0  0  0  0  0  0
   -1.2286    0.4961    0.2502 C   0  0  1  0  0  0  0  0  0  0  0  0
   -0.0480    0.9965   -0.2007 O   0  0  0  0  0  0  0  0  0  0  0  0
    1.0996    0.6271    0.5642 C   0  0  2  0  0  0  0  0  0  0  0  0
    2.3357    0.9471   -0.1769 C   0  0  0  0  0  0  0  0  0  0  0  0
    3.3269   -0.0142   -0.1954 C   0  0  0  0  0  0  0  0  0  0  0  0
    4.4970    0.2139   -0.8621 C   0  0  0  0  0  0  0  0  0  0  0  0
    4.7056    1.3891   -1.5177 C   0  0  0  0  0  0  0  0  0  0  0  0
    5.8762    1.6009   -2.1770 F   0  0  0  0  0  0  0  0  0  0  0  0
    3.7107    2.3380   -1.4916 C   0  0  0  0  0  0  0  0  0  0  0  0
    2.5289    2.1294   -0.8285 C   0  0  0  0  0  0  0  0  0  0  0  0
    1.0055   -0.8237    0.8914 C   0  0  0  0  0  0  0  0  0  0  0  0
    1.9023   -1.7298    1.3516 C   0  0  0  0  0  0  0  0  0  0  0  0
    1.5562   -3.0869    1.5663 C   0  0  0  0  0  0  0  0  0  0  0  0
    0.2310   -3.4491    1.2770 C   0  0  0  0  0  0  0  0  0  0  0  0
   -0.2448   -4.7175    1.4332 F   0  0  0  0  0  0  0  0  0  0  0  0
   -0.6474   -2.5285    0.8188 C   0  0  0  0  0  0  0  0  0  0  0  0
   -0.2195   -1.2907    0.6551 C   0  0  0  0  0  0  0  0  0  0  0  0
   -2.0571   -2.7239    0.4579 N   0  0  0  0  0  0  0  0  0  0  0  0
   -2.5505   -4.0345    0.4774 C   0  0  0  0  0  2  0  0  0  0  0  0
  1  2  1  0
  2  3  1  0
  3  4  2  0
  5  3  1  6
  5  6  1  0
  6  7  1  0
  7  8  1  0
  9  8  1  6
  9 10  1  0
 10 11  1  0
 11 12  1  6
 12 13  1  0
 13 14  1  6
 14 15  2  0
 15 16  1  0
 16 17  2  0
 17 18  1  0
 17 19  1  0
 19 20  2  0
 13 21  1  0
 21 22  1  0
 22 23  2  0
 23 24  1  0
 24 25  1  0
 24 26  2  0
 26 27  1  0
  9 28  1  0
 28 29  1  0
 11  5  1  0
 20 14  1  0
 27 21  2  0
 28 26  1  0
M  RAD  1  29   3
M  END
>  <fragInfo>  (1) 
5 6 7 8 9 10 11 12 13 21 22 23 24 25 26 27 28 29
1 2
3 4
14 15 16 17 18 19 20


>  <torsionInfo>  (1) 
3 5 2 0
13 14 0 3
2 3 1 2


>  <atomInfo>  (1) 
1  0.08059881C 
2  -0.4687204OA
3  0.31080002C 
4  -0.2518601OA
5  0.08312639C 
6  -0.0372714C 
7  -0.0504236C 
8  -0.0325246C 
9  0.03203620C 
10 -0.0052360C 
11 0.07404106C 
12 -0.3645799OA
13 0.10802764C 
14 -0.0146098A 
15 -0.0531761A 
16 -0.0259405A 
17 0.12273087A 
18 -0.2070121F 
19 -0.0259405A 
20 -0.0531761A 
21 -0.0125470A 
22 -0.0530187A 
23 -0.0237662A 
24 0.14603289A 
25 -0.2047103F 
26 0.07394891A 
27 -0.0295357A 
28 -0.3587672N 
29 0.07424074C 


$$$$
