
     RDKit          3D

 54 55  0  0  0  0  0  0  0  0999 V2000
   -0.7032   -1.3285    1.7589 C   0  0  2  0  0  0  0  0  0  0  0  0
   -1.8919   -1.6819    0.9281 C   0  0  2  0  0  0  0  0  0  0  0  0
   -1.5795   -2.1219   -0.4669 C   0  0  0  0  0  0  0  0  0  0  0  0
   -3.0327   -0.7087    1.0085 C   0  0  0  0  0  0  0  0  0  0  0  0
   -4.3221   -1.4955    1.1258 C   0  0  0  0  0  0  0  0  0  0  0  0
   -4.9456   -1.7128   -0.2402 C   0  0  0  0  0  0  0  0  0  0  0  0
   -5.9596   -2.8285   -0.2190 C   0  0  1  0  0  0  0  0  0  0  0  0
   -5.6959   -3.8115    0.9017 C   0  0  0  0  0  0  0  0  0  0  0  0
   -7.3773   -2.3041   -0.1790 C   0  0  0  0  0  3  0  0  0  0  0  0
   -7.3775   -0.9752    0.5471 C   0  0  0  0  0  0  0  0  0  0  0  0
   -8.7653   -0.4821    0.8549 C   0  0  0  0  0  3  0  0  0  0  0  0
   -9.4562    0.1543   -0.3066 C   0  0  0  0  0  3  0  0  0  0  0  0
   -8.6333    1.2090   -0.9912 C   0  0  2  0  0  0  0  0  0  0  0  0
   -8.0231    0.7340   -2.2726 C   0  0  0  0  0  2  0  0  0  0  0  0
   -7.5960    1.7493   -0.0331 C   0  0  0  0  0  0  0  0  0  0  0  0
   -8.2497    2.5729    1.0559 C   0  0  2  0  0  0  0  0  0  0  0  0
   -9.5817    2.9940    0.7195 N   0  0  0  0  0  0  0  0  0  0  0  0
   -7.3544    3.7883    1.2722 C   0  0  0  0  0  3  0  0  0  0  0  0
   -5.9114    3.3789    1.4015 C   0  0  0  0  0  0  0  0  0  0  0  0
   -5.3654    2.8539    0.0798 C   0  0  0  0  0  0  0  0  0  0  0  0
   -4.7304    3.9950   -0.6917 C   0  0  2  0  0  0  0  0  0  0  0  0
   -5.2187    4.0413   -2.1168 C   0  0  0  0  0  1  0  0  0  0  0  0
   -3.2138    3.8972   -0.6603 C   0  0  1  0  0  0  0  0  0  0  0  0
   -2.7710    2.9532    0.4366 C   0  0  0  0  0  0  0  0  0  0  0  0
   -2.6422    3.2512   -2.2516 S   0  0  0  0  0  0  0  0  0  0  0  0
   -2.4917    1.4830   -2.0705 N   0  0  0  0  0  0  0  0  0  0  0  0
   -1.1063    1.1077   -2.0351 C   0  0  0  0  0  3  0  0  0  0  0  0
   -0.6749    1.1450   -0.5701 C   0  0  0  0  0  0  0  0  0  0  0  0
    0.6975    0.4973   -0.4408 C   0  0  1  0  0  0  0  0  0  0  0  0
    0.5276   -1.0297   -0.4251 C   0  0  0  0  0  0  0  0  0  0  0  0
    0.6219   -1.4758    0.9935 C   0  0  2  0  0  0  0  0  0  0  0  0
    0.4447   -2.9831    1.2220 C   0  0  1  0  0  0  0  0  0  0  0  0
    1.7437   -3.6984    1.3914 C   0  0  0  0  0  0  0  0  0  0  0  0
   -0.2446   -2.5781    2.5358 C   0  0  2  0  0  0  0  0  0  0  0  0
   -1.3843   -3.4884    2.9154 C   0  0  0  0  0  2  0  0  0  0  0  0
    1.4960    0.9224   -1.6551 C   0  0  0  0  0  3  0  0  0  0  0  0
    2.8985    0.4155   -1.6796 C   0  0  0  0  0  0  0  0  0  0  0  0
    3.7361    0.8735   -0.5415 C   0  0  1  0  0  0  0  0  0  0  0  0
    3.9372    2.6018   -0.3820 Cl  0  0  0  0  0  0  0  0  0  0  0  0
    3.6256    0.1053    0.7221 C   0  0  0  0  0  3  0  0  0  0  0  0
    4.0284   -1.3405    0.5712 C   0  0  0  0  0  0  0  0  0  0  0  0
    5.4659   -1.4818    0.1198 C   0  0  1  0  0  0  0  0  0  0  0  0
    5.6735   -0.8024   -1.2273 C   0  0  0  0  0  0  0  0  0  0  0  0
    6.4175   -0.8351    1.1064 C   0  0  0  0  0  0  0  0  0  0  0  0
    7.8497   -0.9533    0.6996 C   0  0  0  0  0  3  0  0  0  0  0  0
    8.3403   -2.3378    0.5587 C   0  0  0  0  0  0  0  0  0  0  0  0
    9.7254   -2.5575    0.1776 C   0  0  0  0  0  0  0  0  0  0  0  0
   10.2513   -2.1037   -1.0782 C   0  0  0  0  0  3  0  0  0  0  0  0
   10.2709   -0.6865   -1.4358 C   0  0  1  0  0  0  0  0  0  0  0  0
    8.9497   -0.0140   -1.6369 C   0  0  0  0  0  2  0  0  0  0  0  0
   11.1376    0.1385   -0.4786 C   0  0  0  0  0  0  0  0  0  0  0  0
   12.5531   -0.4273   -0.5598 C   0  0  0  0  0  3  0  0  0  0  0  0
   13.3946    0.4044    0.3954 C   0  0  0  0  0  3  0  0  0  0  0  0
   12.5130    0.9775    1.4684 C   0  0  0  0  0  0  0  0  0  0  0  0
  1  2  1  6
  2  3  1  6
  2  4  1  0
  4  5  1  0
  5  6  1  0
  6  7  1  0
  7  8  1  1
  7  9  1  0
  9 10  1  0
 10 11  1  0
 11 12  1  0
 12 13  1  0
 13 14  1  6
 13 15  1  0
 15 16  1  0
 16 17  1  6
 16 18  1  0
 18 19  1  0
 19 20  1  0
 20 21  1  0
 21 22  1  6
 21 23  1  0
 23 24  1  1
 23 25  1  0
 25 26  1  0
 26 27  1  0
 27 28  1  0
 28 29  1  0
 29 30  1  0
 31 30  1  6
 31 32  1  0
 32 33  1  1
 32 34  1  0
 34 35  1  6
 29 36  1  6
 36 37  1  0
 37 38  1  0
 38 39  1  1
 38 40  1  0
 40 41  1  0
 41 42  1  0
 42 43  1  6
 42 44  1  0
 44 45  1  0
 45 46  1  0
 46 47  1  0
 47 48  1  0
 48 49  1  0
 49 50  1  1
 49 51  1  0
 51 52  1  0
 52 53  1  0
 53 54  1  0
 31  1  1  0
 34  1  1  0
M  RAD  8   9   2  11   2  12   2  14   3  18   2  22   2  27   2  35   3
M  RAD  7  36   2  40   2  45   2  48   2  50   3  52   2  53   2
M  END
>  <fragInfo>  (1) 
1 2 3 4 5 6 7 8 9 10 11 12 13 14 15 16 17 18 19 20 21 22 23 24 25 26 27 28 29 30 31 32 33 34 35
36
37
38 39
40
41
42 43
44
45
46
47
48
49 50
51
52
53 54


>  <torsionInfo>  (1) 
29 36 0 1
36 37 1 2
37 38 2 3
38 40 3 4
40 41 4 5
41 42 5 6
42 44 6 7
44 45 7 8
45 46 8 9
46 47 9 10
47 48 10 11
48 49 11 12
49 51 12 13
51 52 13 14
52 53 14 15


>  <atomInfo>  (1) 
1  -0.0323376C 
2  -0.0408747C 
3  -0.0622236C 
4  -0.0504156C 
5  -0.0527776C 
6  -0.0504260C 
7  -0.0411498C 
8  -0.0622340C 
9  -0.0354557C 
10 -0.0464996C 
11 -0.0346009C 
12 -0.0317199C 
13 -0.0331293C 
14 -0.0314338C 
15 -0.0342832C 
16 0.00731918C 
17 -0.3274190NA
18 -0.0218538C 
19 -0.0483192C 
20 -0.0484227C 
21 -0.0210225C 
22 -0.0044579C 
23 0.01984991C 
24 -0.0517433C 
25 -0.0784468SA
26 -0.2592028NA
27 0.03367900C 
28 -0.0321801C 
29 -0.0364000C 
30 -0.0467043C 
31 -0.0349054C 
32 -0.0377253C 
33 -0.0619473C 
34 -0.0317880C 
35 -0.0312089C 
36 -0.0339404C 
37 -0.0330626C 
38 0.03699184C 
39 -0.1226822Cl
40 -0.0204166C 
41 -0.0461152C 
42 -0.0436793C 
43 -0.0624881C 
44 -0.0475776C 
45 -0.0383104C 
46 -0.0498883C 
47 -0.0496228C 
48 -0.0351601C 
49 -0.0346121C 
50 -0.0314940C 
51 -0.0464893C 
52 -0.0351813C 
53 -0.0382943C 
54 -0.0619685C 


$$$$
