
     RDKit          2D

 76 76  0  0  0  0  0  0  0  0999 V2000
   10.6771   -9.0933    0.0000 C   0  0  0  0  0  0  0  0  0  0  0  0
    9.1771   -9.0933    0.0000 C   0  0  0  0  0  0  0  0  0  0  0  0
    8.4271  -10.3923    0.0000 C   0  0  0  0  0  0  0  0  0  0  0  0
    8.4271   -7.7942    0.0000 C   0  0  0  0  0  0  0  0  0  0  0  0
    6.9271   -7.7942    0.0000 C   0  0  0  0  0  0  0  0  0  0  0  0
    6.1771   -6.4952    0.0000 C   0  0  0  0  0  0  0  0  0  0  0  0
    4.6771   -6.4952    0.0000 C   0  0  0  0  0  0  0  0  0  0  0  0
    3.9271   -7.7942    0.0000 C   0  0  0  0  0  0  0  0  0  0  0  0
    3.9271   -5.1962    0.0000 C   0  0  0  0  0  3  0  0  0  0  0  0
    4.6771   -3.8971    0.0000 C   0  0  0  0  0  0  0  0  0  0  0  0
    3.9271   -2.5981    0.0000 C   0  0  0  0  0  0  0  0  0  0  0  0
    4.6771   -1.2990    0.0000 C   0  0  0  0  0  0  0  0  0  0  0  0
    6.1771   -1.2990    0.0000 C   0  0  0  0  0  0  0  0  0  0  0  0
    3.9271    0.0000    0.0000 C   0  0  0  0  0  0  0  0  0  0  0  0
    2.4271    0.0000    0.0000 C   0  0  0  0  0  0  0  0  0  0  0  0
    1.9635   -1.4266    0.0000 C   0  0  0  0  0  0  0  0  0  0  0  0
    1.9635    1.4266    0.0000 C   0  0  0  0  0  0  0  0  0  0  0  0
    0.7500    2.3083    0.0000 C   0  0  0  0  0  0  0  0  0  0  0  0
   -0.7500    2.3083    0.0000 C   0  0  0  0  0  0  0  0  0  0  0  0
   -0.2865    3.7348    0.0000 O   0  0  0  0  0  0  0  0  0  0  0  0
   -1.9635    3.1899    0.0000 C   0  0  0  0  0  0  0  0  0  0  0  0
   -1.9635    1.4266    0.0000 C   0  0  0  0  0  0  0  0  0  0  0  0
   -2.4271    0.0000    0.0000 O   0  0  0  0  0  0  0  0  0  0  0  0
   -1.9635   -1.4266    0.0000 O   0  0  0  0  0  0  0  0  0  0  0  0
   -0.7500   -2.3083    0.0000 N   0  0  0  0  0  0  0  0  0  0  0  0
    0.7500   -2.3083    0.0000 C   0  0  0  0  0  0  0  0  0  0  0  0
    1.9635   -3.1899    0.0000 C   0  0  0  0  0  0  0  0  0  0  0  0
    0.2865   -3.7348    0.0000 C   0  0  0  0  0  3  0  0  0  0  0  0
    1.2902   -4.8496    0.0000 O   0  0  0  0  0  0  0  0  0  0  0  0
    0.8266   -6.2761    0.0000 C   0  0  0  0  0  0  0  0  0  0  0  0
    1.8303   -7.3909    0.0000 C   0  0  0  0  0  0  0  0  0  0  0  0
   -0.6406   -6.5880    0.0000 C   0  0  0  0  0  0  0  0  0  0  0  0
   -1.1041   -8.0146    0.0000 C   0  0  0  0  0  2  0  0  0  0  0  0
   -1.6443   -5.4733    0.0000 C   0  0  0  0  0  0  0  0  0  0  0  0
   -3.1115   -5.7852    0.0000 C   0  0  0  0  0  0  0  0  0  0  0  0
   -4.1152   -4.6705    0.0000 C   0  0  0  0  0  0  0  0  0  0  0  0
   -3.5750   -7.2118    0.0000 C   0  0  0  0  0  0  0  0  0  0  0  0
   -5.0422   -7.5236    0.0000 C   0  0  0  0  0  0  0  0  0  0  0  0
   -5.5058   -8.9502    0.0000 C   0  0  0  0  0  0  0  0  0  0  0  0
   -4.5021  -10.0649    0.0000 F   0  0  0  0  0  0  0  0  0  0  0  0
   -6.9730   -9.2621    0.0000 C   0  0  0  0  0  0  0  0  0  0  0  0
   -7.9767   -8.1474    0.0000 O   0  0  0  0  0  0  0  0  0  0  0  0
   -7.4365  -10.6887    0.0000 C   0  0  0  0  0  3  0  0  0  0  0  0
   -8.9037  -11.0005    0.0000 C   0  0  0  0  0  0  0  0  0  0  0  0
   -9.9074   -9.8858    0.0000 F   0  0  0  0  0  0  0  0  0  0  0  0
   -9.3673  -12.4271    0.0000 C   0  0  0  0  0  0  0  0  0  0  0  0
  -10.8345  -12.7390    0.0000 O   0  0  0  0  0  0  0  0  0  0  0  0
  -11.2980  -14.1656    0.0000 C   0  0  0  0  0  0  0  0  0  0  0  0
  -12.7652  -14.4774    0.0000 C   0  0  0  0  0  0  0  0  0  0  0  0
  -13.2288  -15.9040    0.0000 C   0  0  0  0  0  0  0  0  0  0  0  0
  -11.8022  -16.3675    0.0000 C   0  0  0  0  0  2  0  0  0  0  0  0
  -14.6553  -15.4405    0.0000 C   0  0  0  0  0  2  0  0  0  0  0  0
  -13.6923  -17.3306    0.0000 C   0  0  0  0  0  3  0  0  0  0  0  0
  -15.1595  -17.6425    0.0000 F   0  0  0  0  0  0  0  0  0  0  0  0
  -12.6886  -18.4453    0.0000 C   0  0  0  0  0  0  0  0  0  0  0  0
  -13.1521  -19.8719    0.0000 C   0  0  0  0  0  0  0  0  0  0  0  0
  -12.1484  -20.9866    0.0000 C   0  0  0  0  0  0  0  0  0  0  0  0
  -12.6119  -22.4132    0.0000 C   0  0  0  0  0  2  0  0  0  0  0  0
  -10.6812  -20.6748    0.0000 C   0  0  0  0  0  0  0  0  0  0  0  0
   -9.6775  -21.7895    0.0000 C   0  0  0  0  0  0  0  0  0  0  0  0
   -8.2103  -21.4776    0.0000 C   0  0  0  0  0  0  0  0  0  0  0  0
   -7.7467  -20.0510    0.0000 C   0  0  0  0  0  0  0  0  0  0  0  0
   -6.2795  -19.7391    0.0000 C   0  0  0  0  0  0  0  0  0  0  0  0
   -5.8160  -18.3126    0.0000 C   0  0  0  0  0  2  0  0  0  0  0  0
   -5.2758  -20.8539    0.0000 O   0  0  0  0  0  0  0  0  0  0  0  0
   -7.2066  -22.5923    0.0000 C   0  0  0  0  0  0  0  0  0  0  0  0
   -5.7394  -22.2804    0.0000 C   0  0  0  0  0  3  0  0  0  0  0  0
   -4.7357  -23.3952    0.0000 C   0  0  0  0  0  0  0  0  0  0  0  0
   -3.2684  -23.0833    0.0000 C   0  0  0  0  0  0  0  0  0  0  0  0
   -2.2647  -24.1980    0.0000 C   0  0  0  0  0  0  0  0  0  0  0  0
   -2.7283  -25.6246    0.0000 N   0  0  0  0  0  0  0  0  0  0  0  0
   -0.7975  -23.8861    0.0000 C   0  0  0  0  0  0  0  0  0  0  0  0
    0.2062  -25.0009    0.0000 C   0  0  0  0  0  2  0  0  0  0  0  0
   -0.3340  -22.4596    0.0000 C   0  0  0  0  0  0  0  0  0  0  0  0
    1.1332  -22.1477    0.0000 N   0  0  0  0  0  0  0  0  0  0  0  0
    1.5968  -20.7211    0.0000 C   0  0  0  0  0  0  0  0  0  0  0  0
  1  2  1  0
  2  3  1  0
  2  4  1  0
  4  5  1  0
  5  6  1  0
  6  7  1  0
  7  8  1  1
  7  9  1  0
  9 10  1  0
 10 11  1  0
 11 12  1  0
 12 13  1  1
 12 14  1  0
 14 15  1  0
 15 16  1  0
 15 17  1  0
 17 18  1  0
 18 19  1  0
 19 20  1  0
 19 21  1  0
 19 22  1  0
 22 23  1  0
 23 24  1  0
 24 25  1  0
 25 26  1  0
 26 27  1  0
 26 28  1  0
 28 29  1  0
 29 30  1  0
 30 31  1  6
 30 32  1  0
 32 33  1  6
 32 34  1  0
 34 35  1  0
 35 36  1  1
 35 37  1  0
 37 38  1  0
 38 39  1  0
 39 40  1  0
 39 41  1  0
 41 42  1  1
 41 43  1  0
 43 44  1  0
 44 45  1  1
 44 46  1  0
 46 47  1  0
 47 48  1  0
 48 49  1  0
 49 50  1  0
 50 51  1  0
 50 52  1  0
 50 53  1  0
 53 54  1  0
 53 55  1  0
 55 56  1  0
 56 57  1  0
 57 58  1  1
 57 59  1  0
 59 60  1  0
 60 61  1  0
 61 62  1  0
 62 63  1  0
 63 64  1  6
 63 65  1  0
 61 66  1  0
 66 67  1  0
 67 68  1  0
 68 69  1  0
 69 70  1  0
 70 71  1  1
 70 72  1  0
 72 73  1  1
 72 74  1  0
 74 75  1  0
 75 76  1  0
 26 16  1  0
M  RAD  8   9   2  28   2  33   3  43   2  51   3  52   3  53   2  58   3
M  RAD  3  64   3  67   2  73   3
M  END
>  <fragInfo>  (1) 
15 16 17 18 19 20 21 22 23 24 25 26 27
1 2 3
4
5
6
7 8
9
10
11
12 13
14
28
29
30 31
32 33
34
35 36
37
38
39 40
41 42
43
44 45
46
47
48
49
50 51 52
53 54
55
56
57 58
59
60
61
62
63 64 65
66
67
68
69
70 71
72 73
74
75 76


>  <torsionInfo>  (1) 
14 15 10 0
26 28 0 11
2 4 1 2
4 5 2 3
5 6 3 4
6 7 4 5
7 9 5 6
9 10 6 7
10 11 7 8
11 12 8 9
12 14 9 10
28 29 11 12
29 30 12 13
30 32 13 14
32 34 14 15
34 35 15 16
35 37 16 17
37 38 17 18
38 39 18 19
39 41 19 20
41 43 20 21
43 44 21 22
44 46 22 23
46 47 23 24
47 48 24 25
48 49 25 26
49 50 26 27
50 53 27 28
53 55 28 29
55 56 29 30
56 57 30 31
57 59 31 32
59 60 32 33
60 61 33 34
61 62 34 35
61 66 34 37
62 63 35 36
66 67 37 38
67 68 38 39
68 69 39 40
69 70 40 41
70 72 41 42
72 74 42 43
74 75 43 44


>  <atomInfo>  (1) 
1  -0.0627736C 
2  -0.0471324C 
3  -0.0627736C 
4  -0.0509643C 
5  -0.0527983C 
6  -0.0504266C 
7  -0.0411603C 
8  -0.0622342C 
9  -0.0357404C 
10 -0.0496644C 
11 -0.0504168C 
12 -0.0440049C 
13 -0.0624993C 
14 -0.0477803C 
15 -0.0391379C 
16 -0.0272566C 
17 -0.0475499C 
18 -0.0217475C 
19 0.08843985C 
20 -0.3876466OA
21 -0.0336632C 
22 0.11260668C 
23 -0.2150642OA
24 -0.1424641OA
25 -0.1610727NA
26 0.07241354C 
27 -0.0418099C 
28 0.10608413C 
29 -0.3701811OA
30 0.05837356C 
31 -0.0383738C 
32 -0.0115794C 
33 -0.0291343C 
34 -0.0450989C 
35 -0.0438049C 
36 -0.0624959C 
37 -0.0478327C 
38 -0.0188260C 
39 0.12628094C 
40 -0.2446260F 
41 0.09129729C 
42 -0.3896816OA
43 0.02956288C 
44 0.12917548C 
45 -0.2445171F 
46 0.07825421C 
47 -0.3783993OA
48 0.04737005C 
49 -0.0201440C 
50 0.01666056C 
51 -0.0245894C 
52 -0.0245894C 
53 0.15112550C 
54 -0.2396820F 
55 -0.0147145C 
56 -0.0469717C 
57 -0.0378867C 
58 -0.0317985C 
59 -0.0498942C 
60 -0.0500674C 
61 -0.0386788C 
62 -0.0238491C 
63 0.05780642C 
64 -0.0039128C 
65 -0.3928054OA
66 -0.0472289C 
67 -0.0382506C 
68 -0.0486879C 
69 -0.0373852C 
70 0.00822033C 
71 -0.3273811NA
72 -0.0102466C 
73 -0.0288936C 
74 -0.0005848C 
75 -0.3194055NA
76 -0.0164315C 


$$$$
