
     RDKit          3D

 24 25  0  0  0  0  0  0  0  0999 V2000
   -2.9927   -0.9632   -1.6072 C   0  0  0  0  0  0  0  0  0  0  0  0
   -1.9052    0.0972   -1.3971 C   0  0  1  0  0  0  0  0  0  0  0  0
   -2.6286    1.4428   -1.3967 C   0  0  0  0  0  0  0  0  0  0  0  0
   -3.3568    1.6229   -0.0843 C   0  0  2  0  0  0  0  0  0  0  0  0
   -2.4780    2.3050    0.7620 O   0  0  0  0  0  0  0  0  0  0  0  0
   -3.6279    0.2448    0.4891 C   0  0  2  0  0  0  0  0  0  0  0  0
   -4.5725    0.3111    1.5095 O   0  0  0  0  0  0  0  0  0  0  0  0
   -2.2987   -0.2550    1.0425 C   0  0  1  0  0  0  0  0  0  0  0  0
   -2.3819   -1.5577    1.5095 O   0  0  0  0  0  0  0  0  0  0  0  0
   -1.2624   -0.1290   -0.0466 C   0  0  1  0  0  0  0  0  0  0  0  0
   -0.5086   -1.3596   -0.0760 N   0  0  0  0  0  0  0  0  0  0  0  0
    0.7295   -1.2540    0.6813 C   0  0  1  0  0  0  0  0  0  0  0  0
    1.7473   -2.0458   -0.1480 C   0  0  0  0  0  0  0  0  0  0  0  0
    3.1041   -1.5910    0.3297 C   0  0  2  0  0  0  0  0  0  0  0  0
    3.0913   -0.9562    1.5560 O   0  0  0  0  0  0  0  0  0  0  0  0
    3.7149   -0.7162   -0.7373 C   0  0  1  0  0  0  0  0  0  0  0  0
    3.4842   -1.2248   -1.9820 O   0  0  0  0  0  0  0  0  0  0  0  0
    3.2303    0.6969   -0.6011 C   0  0  1  0  0  0  0  0  0  0  0  0
    3.6162    1.4512   -1.7086 O   0  0  0  0  0  0  0  0  0  0  0  0
    1.6991    0.6835   -0.5534 C   0  0  1  0  0  0  0  0  0  0  0  0
    1.3042   -0.1723   -1.5994 O   0  0  0  0  0  0  0  0  0  0  0  0
    1.2337    0.1573    0.7911 C   0  0  1  0  0  0  0  0  0  0  0  0
    0.3775    0.9889    1.4251 O   0  0  0  0  0  0  0  0  0  0  0  0
    0.6809    2.2233    1.5349 O   0  0  0  0  0  0  0  0  0  0  0  0
  2  1  1  1
  2  3  1  0
  3  4  1  0
  4  5  1  1
  4  6  1  0
  6  7  1  1
  6  8  1  0
  8  9  1  6
  8 10  1  0
 10 11  1  6
 12 11  1  6
 12 13  1  0
 13 14  1  0
 14 15  1  1
 14 16  1  0
 16 17  1  6
 16 18  1  0
 18 19  1  6
 18 20  1  0
 20 21  1  6
 20 22  1  0
 22 23  1  6
 23 24  1  0
 10  2  1  0
 22 12  1  0
M  END
>  <fragInfo>  (1) 
12 13 14 15 16 17 18 19 20 21 22
1 2 3 4 5 6 7 8 9 10
11
23 24


>  <torsionInfo>  (1) 
11 12 2 0
22 23 0 3
10 11 1 2


>  <atomInfo>  (1) 
1  -0.0608233C 
2  -0.0236278C 
3  -0.0201755C 
4  0.08280077C 
5  -0.3903155OA
6  0.10722523C 
7  -0.3876533OA
8  0.09792986C 
9  -0.3886791OA
10 0.03843569C 
11 -0.3054079NA
12 0.04181526C 
13 -0.0060929C 
14 0.08411333C 
15 -0.3902621OA
16 0.10839020C 
17 -0.3876078OA
18 0.11097476C 
19 -0.3874981OA
20 0.11333246C 
21 -0.3874008OA
22 0.13640135C 
23 -0.2315766OA
24 -0.2513804OA


$$$$
