
     RDKit          3D

 74 77  0  0  0  0  0  0  0  0999 V2000
  -15.4167    0.8053   -3.2230 C   0  0  0  0  0  0  0  0  0  0  0  0
  -15.3383    0.6341   -1.8492 O   0  0  0  0  0  0  0  0  0  0  0  0
  -15.4497    1.8795   -1.1635 C   0  0  0  0  0  3  0  0  0  0  0  0
  -16.2659    1.4665   -0.0287 O   0  0  0  0  0  0  0  0  0  0  0  0
  -15.3977    0.5927    0.6157 C   0  0  2  0  0  0  0  0  0  0  0  0
  -16.0686   -0.1827    1.7935 C   0  0  0  0  0  0  0  0  0  0  0  0
  -14.6575    1.3494    1.7867 C   0  0  0  0  0  3  0  0  0  0  0  0
  -14.7796    0.0431    2.5271 C   0  0  2  0  0  0  0  0  0  0  0  0
  -13.7600   -0.9038    2.1816 N   0  0  0  0  0  0  0  0  0  0  0  0
  -13.3831   -0.8989    0.8196 C   0  0  0  0  0  3  0  0  0  0  0  0
  -12.2417   -0.0447    0.4748 C   0  0  2  0  0  0  0  0  0  0  0  0
  -11.7602   -0.1630   -0.9216 C   0  0  2  0  0  0  0  0  0  0  0  0
  -12.6181   -0.2634   -1.9566 O   0  0  0  0  0  0  0  0  0  0  0  0
  -12.2227   -1.4230   -1.4408 N   0  0  0  0  0  3  0  0  0  0  0  0
  -11.1868   -2.1392   -2.2151 C   0  0  0  0  0  0  0  0  0  0  0  0
  -10.0856   -1.1514   -2.5831 C   0  0  1  0  0  0  0  0  0  0  0  0
  -10.5264   -0.3069   -3.6715 O   0  0  0  0  0  0  0  0  0  0  0  0
   -9.5896   -0.3695   -1.5639 C   0  0  0  0  0  3  0  0  0  0  0  0
   -9.2905   -0.3178   -0.1909 C   0  0  1  0  0  0  0  0  0  0  0  0
  -10.0616   -1.2191    0.7714 C   0  0  0  0  0  0  0  0  0  0  0  0
  -11.1263   -0.2815    1.4908 C   0  0  1  0  0  0  0  0  0  0  0  0
  -10.4113    1.0382    1.7275 C   0  0  2  0  0  0  0  0  0  0  0  0
   -9.4387    0.9539    2.6845 O   0  0  0  0  0  0  0  0  0  0  0  0
  -11.2819    2.1870    1.8101 C   0  0  0  0  0  3  0  0  0  0  0  0
  -11.9871    2.2551    3.0690 N   0  0  0  0  0  1  0  0  0  0  0  0
   -7.8359   -0.4775   -0.0214 O   0  0  0  0  0  0  0  0  0  0  0  0
   -7.5096    0.6876    0.5752 O   0  0  0  0  0  0  0  0  0  0  0  0
   -6.4733    1.3019   -0.1686 C   0  0  0  0  0  0  0  0  0  0  0  0
   -6.6552    1.2132   -1.5233 O   0  0  0  0  0  0  0  0  0  0  0  0
   -6.4028   -0.2096   -1.7834 C   0  0  0  0  0  3  0  0  0  0  0  0
   -4.8708   -0.3232   -1.6126 C   0  0  0  0  0  3  0  0  0  0  0  0
   -4.5051   -0.9207   -0.3083 C   0  0  0  0  0  3  0  0  0  0  0  0
   -3.7693    0.0830    0.5645 C   0  0  0  0  0  3  0  0  0  0  0  0
   -3.6157   -0.3758    1.8816 O   0  0  0  0  0  0  0  0  0  0  0  0
   -2.2980   -0.2533    2.2996 C   0  0  0  0  0  3  0  0  0  0  0  0
   -1.7076    0.9219    1.8259 O   0  0  0  0  0  0  0  0  0  0  0  0
   -1.4733    0.7461    0.4673 C   0  0  0  0  0  3  0  0  0  0  0  0
   -0.9728   -0.6137    0.3018 N   0  0  0  0  0  3  0  0  0  0  0  0
   -0.2583   -0.6492   -0.8355 O   0  0  0  0  0  0  0  0  0  0  0  0
   -0.0424   -0.8285    1.4108 C   0  0  0  0  0  3  0  0  0  0  0  0
    0.7233    0.3595    1.5115 O   0  0  0  0  0  0  0  0  0  0  0  0
    1.4874    0.3978    0.3493 C   0  0  0  0  0  3  0  0  0  0  0  0
    2.8877    0.0188    0.7076 C   0  0  2  0  0  0  0  0  0  0  0  0
    3.5054    1.0227    1.6369 C   0  0  0  0  0  0  0  0  0  0  0  0
    3.7405   -0.3317   -0.4742 C   0  0  0  0  0  3  0  0  0  0  0  0
    5.1322   -0.6625    0.0769 C   0  0  0  0  0  3  0  0  0  0  0  0
    5.5210    0.5170    0.7590 O   0  0  0  0  0  0  0  0  0  0  0  0
    5.9507    1.3350   -0.2178 O   0  0  0  0  0  0  0  0  0  0  0  0
    6.7165    0.5230   -1.0823 C   0  0  0  0  0  3  0  0  0  0  0  0
    7.5527   -0.2117   -0.2852 O   0  0  0  0  0  0  0  0  0  0  0  0
    8.1798   -1.2967   -0.8669 C   0  0  0  0  0  0  0  0  0  0  0  0
    9.0365   -0.8822   -1.9513 C   0  0  0  0  0  3  0  0  0  0  0  0
    9.2779    0.4955   -2.2359 N   0  0  0  0  0  3  0  0  0  0  0  0
    9.7074    1.3542   -1.3603 N   0  0  0  0  0  0  0  0  0  0  0  0
    9.9698    0.9561   -0.0200 C   0  0  0  0  0  3  0  0  0  0  0  0
   11.4176    0.4367    0.0139 C   0  0  2  0  0  0  0  0  0  0  0  0
   11.6727   -0.5529   -1.1161 C   0  0  0  0  0  0  0  0  0  0  0  0
   11.5167   -0.3568    1.2718 N   0  0  0  0  0  2  0  0  0  0  0  0
   12.2037    0.3070    2.2167 O   0  0  0  0  0  0  0  0  0  0  0  0
   13.3085    0.8925    1.7292 O   0  0  0  0  0  0  0  0  0  0  0  0
   13.8571    0.1076    0.7534 C   0  0  1  0  0  0  0  0  0  0  0  0
   14.9960    0.9911    0.1541 C   0  0  0  0  0  3  0  0  0  0  0  0
   14.9051    0.8319   -1.3781 C   0  0  0  0  0  3  0  0  0  0  0  0
   14.7600   -0.6773   -1.6661 C   0  0  0  0  0  3  0  0  0  0  0  0
   15.5085   -1.0095   -2.7760 O   0  0  0  0  0  0  0  0  0  0  0  0
   16.2814    0.0659   -3.1487 N   0  0  0  0  0  0  0  0  0  0  0  0
   17.5791   -0.1283   -2.5355 C   0  0  0  0  0  3  0  0  0  0  0  0
   17.4930   -0.6297   -1.2413 O   0  0  0  0  0  0  0  0  0  0  0  0
   18.2034    0.2510   -0.3918 C   0  0  0  0  0  0  0  0  0  0  0  0
   18.0411   -0.1699    1.0315 C   0  0  0  0  0  0  0  0  0  0  0  0
   16.5918   -0.1568    1.4194 C   0  0  0  0  0  0  0  0  0  0  0  0
   15.8965   -1.2382    0.8957 O   0  0  0  0  0  0  0  0  0  0  0  0
   14.5609   -1.1191    1.3542 C   0  0  1  0  0  0  0  0  0  0  0  0
   14.5534   -1.1649    2.8484 C   0  0  0  0  0  2  0  0  0  0  0  0
  1  2  1  0
  2  3  1  0
  3  4  1  0
  5  4  1  1
  5  6  1  0
  5  7  1  0
  7  8  1  0
  8  9  1  6
  9 10  1  0
 11 10  1  1
 11 12  1  0
 12 13  1  6
 12 14  1  0
 14 15  1  0
 15 16  1  0
 16 17  1  6
 16 18  1  0
 18 19  1  0
 19 20  1  0
 21 20  1  6
 21 22  1  0
 22 23  1  1
 22 24  1  0
 24 25  1  0
 19 26  1  6
 26 27  1  0
 27 28  1  0
 28 29  1  0
 29 30  1  0
 30 31  1  0
 31 32  1  0
 32 33  1  0
 33 34  1  0
 34 35  1  0
 35 36  1  0
 36 37  1  0
 37 38  1  0
 38 39  1  0
 38 40  1  0
 40 41  1  0
 41 42  1  0
 42 43  1  0
 43 44  1  6
 43 45  1  0
 45 46  1  0
 46 47  1  0
 47 48  1  0
 48 49  1  0
 49 50  1  0
 50 51  1  0
 51 52  1  0
 52 53  1  0
 53 54  2  3
 54 55  1  0
 55 56  1  0
 56 57  1  6
 56 58  1  0
 58 59  1  0
 59 60  1  0
 61 60  1  1
 61 62  1  0
 62 63  1  0
 63 64  1  0
 64 65  1  0
 65 66  1  0
 66 67  1  0
 67 68  1  0
 68 69  1  0
 69 70  1  0
 70 71  1  0
 71 72  1  0
 72 73  1  0
 73 74  1  1
  8  6  1  0
 21 11  1  0
 14 13  1  0
 73 61  1  0
M  RAD  8   3   2   7   2  10   2  14   2  18   2  24   2  25   2  30   2
M  RAD  8  31   2  32   2  33   2  35   2  37   2  38   2  40   2  42   2
M  RAD  8  45   2  46   2  49   2  52   2  53   2  55   2  58   3  62   2
M  CHG  5  14   1  25   1  38   1  53   1  58   1
M  RAD  4  63   2  64   2  67   2  74   3
M  END
>  <fragInfo>  (1) 
61 62 63 64 65 66 67 68 69 70 71 72 73 74
1 2
3
4
5 6 7 8
9
10
11 12 13 14 15 16 17 18 19 20 21
22 23
24 25
26
27
28
29
30
31
32
33
34
35
36
37
38 39
40
41
42
43 44
45
46
47
48
49
50
51
52
53 54
55
56 57
58
59
60


>  <torsionInfo>  (1) 
60 61 40 0
2 3 1 2
3 4 2 3
4 5 3 4
8 9 4 5
9 10 5 6
10 11 6 7
19 26 7 10
21 22 7 8
22 24 8 9
26 27 10 11
27 28 11 12
28 29 12 13
29 30 13 14
30 31 14 15
31 32 15 16
32 33 16 17
33 34 17 18
34 35 18 19
35 36 19 20
36 37 20 21
37 38 21 22
38 40 22 23
40 41 23 24
41 42 24 25
42 43 25 26
43 45 26 27
45 46 27 28
46 47 28 29
47 48 29 30
48 49 30 31
49 50 31 32
50 51 32 33
51 52 33 34
52 53 34 35
54 55 35 36
55 56 36 37
56 58 37 38
58 59 38 39
59 60 39 40


>  <atomInfo>  (1) 
1  0.03885651C 
2  -0.3513312OA
3  0.20895218C 
4  -0.3442005OA
5  0.06708508C 
6  -0.0103764C 
7  0.00751562C 
8  0.01525419C 
9  -0.3085268NA
10 0.03499492C 
11 0.07399849C 
12 0.33264484C 
13 -0.0729364OA
14 0.03853110N 
15 0.18911499C 
16 0.11697480C 
17 -0.3864910OA
18 0.02830482C 
19 0.09942171C 
20 -0.0168938C 
21 0.00748987C 
22 0.13550625C 
23 -0.3855046OA
24 0.37355149C 
25 0.43270840N 
26 -0.2305698OA
27 -0.2076568OA
28 0.18077044C 
29 -0.3459618OA
30 0.09060793C 
31 -0.0007251C 
32 -0.0007121C 
33 0.09099902C 
34 -0.3413713OA
35 0.21594531C 
36 -0.2803087OA
37 0.36556969C 
38 0.06814337N 
39 -0.1567493OA
40 0.36349074C 
41 -0.3093260OA
42 0.09411489C 
43 -0.0090636C 
44 -0.0595435C 
45 0.00195857C 
46 0.12614208C 
47 -0.2272661OA
48 -0.1983027OA
49 0.24567243C 
50 -0.3379739OA
51 0.12920691C 
52 0.34680652C 
53 0.16978701N 
54 0.03908995NA
55 0.22066629C 
56 0.27196905C 
57 0.00595579C 
58 0.30443492N 
59 0.09423419OA
60 -0.1679660OA
61 0.12930925C 
62 0.00282085C 
63 0.00147796C 
64 0.11106154C 
65 -0.2927229OA
66 -0.1692246NA
67 0.17093902C 
68 -0.3568456OA
69 0.05116961C 
70 -0.0058624C 
71 0.04928092C 
72 -0.3749687OA
73 0.09091070C 
74 -0.0007112C 


$$$$
