
     RDKit          3D

 34 37  0  0  0  0  0  0  0  0999 V2000
    2.3407    0.9663   -0.2067 C   0  0  2  0  0  0  0  0  0  0  0  0
    2.2624    2.0515    0.8739 C   0  0  1  0  0  0  0  0  0  0  0  0
    2.7632    3.3448    0.3005 C   0  0  0  0  0  0  0  0  0  0  0  0
    0.8050    2.2408    1.2842 C   0  0  0  0  0  0  0  0  0  0  0  0
    0.4477    3.7016    1.2626 C   0  0  0  0  0  0  0  0  0  0  0  0
   -0.2306    4.0936   -0.0415 C   0  0  0  0  0  0  0  0  0  0  0  0
   -1.3300    3.1175   -0.3919 C   0  0  1  0  0  0  0  0  0  0  0  0
   -1.5224    2.1637    0.7687 C   0  0  0  0  0  0  0  0  0  0  0  0
   -2.6446    3.8021   -0.6394 C   0  0  0  0  0  3  0  0  0  0  0  0
   -3.6783    2.7550   -0.9572 C   0  0  0  0  0  0  0  0  0  0  0  0
   -4.2355    2.0774    0.2602 C   0  0  0  0  0  0  0  0  0  0  0  0
   -4.7107    0.6716   -0.0760 C   0  0  2  0  0  0  0  0  0  0  0  0
   -6.1564    0.4887    0.3338 C   0  0  0  0  0  0  0  0  0  0  0  0
   -3.8637   -0.3608    0.6001 C   0  0  0  0  0  3  0  0  0  0  0  0
   -4.5711   -1.6769    0.6525 C   0  0  0  0  0  0  0  0  0  0  0  0
   -4.4591   -2.4810   -0.6105 C   0  0  1  0  0  0  0  0  0  0  0  0
   -4.5157   -1.6387   -1.8596 C   0  0  0  0  0  0  0  0  0  0  0  0
   -3.3484   -3.4745   -0.6057 C   0  0  0  0  0  0  0  0  0  0  0  0
   -2.0281   -2.9506   -0.8065 C   0  0  0  0  0  0  0  0  0  0  0  0
   -0.8335   -3.1809   -0.4437 C   0  0  0  0  0  0  0  0  0  0  0  0
    0.1650   -2.2645   -0.9978 N   0  0  0  0  0  0  0  0  0  0  0  0
    0.0501   -4.0730    0.3827 C   0  0  1  0  0  0  0  0  0  0  0  0
    1.3771   -4.4296    0.0373 C   0  0  0  0  0  0  0  0  0  0  0  0
    1.1006   -3.2237    0.8578 N   0  0  0  0  0  0  0  0  0  0  0  0
    1.0090   -1.9683    0.1486 C   0  0  1  0  0  0  0  0  0  0  0  0
    2.3625   -1.4428   -0.2804 C   0  0  0  0  0  0  0  0  0  0  0  0
    2.6462   -0.2626    0.4644 N   0  0  0  0  0  0  0  0  0  0  0  0
    3.8510   -0.2644    1.1315 N   0  0  0  0  0  0  0  0  0  0  0  0
    4.8677   -0.9390    0.4759 N   0  0  0  0  0  0  0  0  0  0  0  0
    5.4464   -0.0779   -0.4527 N   0  0  0  0  0  0  0  0  0  0  0  0
    4.9610   -0.4547   -1.7651 C   0  0  0  0  0  0  0  0  0  0  0  0
    3.7549    0.3289   -2.1800 C   0  0  0  0  0  0  0  0  0  0  0  0
    3.3771    1.3893   -1.1989 C   0  0  2  0  0  0  0  0  0  0  0  0
    4.5403    1.9713   -0.5250 N   0  0  0  0  0  0  0  0  0  0  0  0
  1  2  1  0
  2  3  1  6
  2  4  1  0
  4  5  1  0
  5  6  1  0
  6  7  1  0
  7  8  1  1
  7  9  1  0
  9 10  1  0
 10 11  1  0
 11 12  1  0
 12 13  1  1
 12 14  1  0
 14 15  1  0
 15 16  1  0
 16 17  1  6
 16 18  1  0
 18 19  1  0
 19 20  2  3
 20 21  1  0
 20 22  1  0
 22 23  1  6
 22 24  1  0
 24 25  1  0
 25 26  1  6
 26 27  1  0
 27 28  1  0
 28 29  1  0
 29 30  1  0
 30 31  1  0
 31 32  1  0
 32 33  1  0
 33 34  1  1
  1 27  1  1
 33  1  1  0
 25 21  1  0
 24 23  1  0
M  RAD  2   9   2  14   2
M  END
>  <fragInfo>  (1) 
1 2 3 4 5 6 7 8 9 10 11 12 13 14 15 16 17 18 19 20 21 22 23 24 25 26 27 28 29 30 31 32 33 34


>  <torsionInfo>  (1) 


>  <atomInfo>  (1) 
1  0.04354932C 
2  -0.0256238C 
3  -0.0608983C 
4  -0.0490934C 
5  -0.0527282C 
6  -0.0504254C 
7  -0.0411603C 
8  -0.0622342C 
9  -0.0357403C 
10 -0.0496542C 
11 -0.0501520C 
12 -0.0411398C 
13 -0.0622339C 
14 -0.0354759C 
15 -0.0470275C 
16 -0.0404528C 
17 -0.0622015C 
18 -0.0304067C 
19 -0.0635005C 
20 0.02679592C 
21 -0.3707038N 
22 0.06403363C 
23 0.02221296C 
24 -0.2706750NA
25 0.09428325C 
26 0.04874832C 
27 -0.2214031NA
28 -0.1771758NA
29 -0.1801001NA
30 -0.2430298NA
31 0.01288104C 
32 -0.0223351C 
33 0.02261885C 
34 -0.3262067NA


$$$$
