
     RDKit          3D

 21 20  0  0  0  0  0  0  0  0999 V2000
    5.9715    3.5185   -0.7375 O   0  0  0  0  0  0  0  0  0  0  0  0
    5.7473    2.2272   -0.7731 O   0  0  0  0  0  0  0  0  0  0  0  0
    4.4198    1.9511   -0.4605 C   0  0  0  0  0  3  0  0  0  0  0  0
    3.9788    0.7540   -0.9973 O   0  0  0  0  0  0  0  0  0  0  0  0
    3.3149    0.0297   -0.0290 C   0  0  2  0  0  0  0  0  0  0  0  0
    2.8291   -1.2914   -0.6241 C   0  0  0  0  0  0  0  0  0  0  0  0
    2.1271    0.7412    0.5417 C   0  0  0  0  0  3  0  0  0  0  0  0
    1.0643    1.0481   -0.4613 C   0  0  0  0  0  3  0  0  0  0  0  0
   -0.2115    0.3064   -0.2541 C   0  0  0  0  0  3  0  0  0  0  0  0
    0.0028   -1.1207    0.1934 C   0  0  0  0  0  0  0  0  0  0  0  0
   -1.2629   -1.8702    0.4033 C   0  0  2  0  0  0  0  0  0  0  0  0
   -0.9162   -3.2751    0.8463 C   0  0  0  0  0  0  0  0  0  0  0  0
   -2.0569   -2.0035   -0.8857 C   0  0  0  0  0  0  0  0  0  0  0  0
   -3.3304   -2.7643   -0.6466 C   0  0  0  0  0  0  0  0  0  0  0  0
   -2.1671   -1.2762    1.4448 C   0  0  1  0  0  0  0  0  0  0  0  0
   -1.5497   -1.2201    2.6939 O   0  0  0  0  0  0  0  0  0  0  0  0
   -2.7237    0.0572    1.0618 C   0  0  2  0  0  0  0  0  0  0  0  0
   -3.6676    0.4059    2.0547 O   0  0  0  0  0  0  0  0  0  0  0  0
   -3.4397   -0.0542   -0.1221 O   0  0  0  0  0  0  0  0  0  0  0  0
   -4.0996    1.4249   -0.6148 S   0  0  0  0  0  0  0  0  0  0  0  0
   -4.0307    2.4114    0.5235 O   0  0  0  0  0  0  0  0  0  0  0  0
  1  2  1  0
  2  3  1  0
  3  4  1  0
  4  5  1  0
  5  6  1  6
  5  7  1  0
  7  8  1  0
  8  9  1  0
  9 10  1  0
 10 11  1  0
 11 12  1  1
 11 13  1  0
 13 14  1  0
 11 15  1  0
 15 16  1  1
 15 17  1  0
 17 18  1  1
 17 19  1  0
 19 20  1  0
 20 21  2  0
M  RAD  4   3   2   7   2   8   2   9   2
M  END
>  <fragInfo>  (1) 
1 2
3
4
5 6
7
8
9
10
11 12
13 14
15 16
17 18
19
20 21


>  <torsionInfo>  (1) 
2 3 0 1
3 4 1 2
4 5 2 3
5 7 3 4
7 8 4 5
8 9 5 6
9 10 6 7
10 11 7 8
11 13 8 9
11 15 8 10
15 17 10 11
17 19 11 12
19 20 12 13


>  <atomInfo>  (1) 
1  -0.2489199OA
2  -0.2014109OA
3  0.24539893C 
4  -0.3423609OA
5  0.06162750C 
6  -0.0382516C 
7  -0.0061536C 
8  -0.0291183C 
9  -0.0341565C 
10 -0.0417824C 
11 -0.0014675C 
12 -0.0569678C 
13 -0.0480439C 
14 -0.0647635C 
15 0.11109671C 
16 -0.3872242OA
17 0.19638147C 
18 -0.3649994OA
19 -0.2580874OA
20 0.14421180S 
21 -0.2330095OA


$$$$
