
     RDKit          3D

 17 16  0  0  0  0  0  0  0  0999 V2000
    4.0134    0.1918    1.2480 C   0  0  0  0  0  0  0  0  0  0  0  0
    4.5702    0.1171   -0.1468 C   0  0  0  0  0  0  0  0  0  0  0  0
    5.6149   -0.9568   -0.2228 C   0  0  0  0  0  0  0  0  0  0  0  0
    3.5096   -0.1889   -1.1844 C   0  0  0  0  0  0  0  0  0  0  0  0
    2.4867    0.9272   -1.1173 C   0  0  0  0  0  0  0  0  0  0  0  0
    1.9213    0.9172    0.2897 C   0  0  0  0  0  0  0  0  0  0  0  0
    1.2937   -0.4369    0.5003 C   0  0  1  0  0  0  0  0  0  0  0  0
    0.6851   -0.6204    1.8412 C   0  0  0  0  0  0  0  0  0  0  0  0
    0.4154   -0.8091   -0.6489 C   0  0  0  0  0  3  0  0  0  0  0  0
   -0.7156    0.1230   -0.9022 C   0  0  0  0  0  3  0  0  0  0  0  0
   -1.4980    0.4879    0.3223 C   0  0  0  0  0  0  0  0  0  0  0  0
   -2.6108    1.4345   -0.0748 C   0  0  2  0  0  0  0  0  0  0  0  0
   -3.4205    1.8221    1.1422 C   0  0  0  0  0  0  0  0  0  0  0  0
   -3.5270    0.6771   -1.0149 C   0  0  0  0  0  0  0  0  0  0  0  0
   -4.0554   -0.5044   -0.2817 C   0  0  0  0  0  0  0  0  0  0  0  0
   -4.8175   -0.3037    0.9112 N   0  0  0  0  0  1  0  0  0  0  0  0
   -3.8656   -1.7119   -0.6613 N   0  0  0  0  0  2  0  0  0  0  0  0
  1  2  1  0
  2  3  1  0
  2  4  1  0
  4  5  1  0
  5  6  1  0
  6  7  1  0
  7  8  1  1
  7  9  1  0
  9 10  1  0
 10 11  1  0
 11 12  1  0
 12 13  1  1
 12 14  1  0
 14 15  1  0
 15 16  1  0
 15 17  2  0
M  CHG  2  16   1  17  -1
M  RAD  3   9   2  10   2  16   2
M  END
>  <fragInfo>  (1) 
1 2 3
4
5
6
7 8
9
10
11
12 13
14
15 16 17


>  <torsionInfo>  (1) 
2 4 0 1
4 5 1 2
5 6 2 3
6 7 3 4
7 9 4 5
9 10 5 6
10 11 6 7
11 12 7 8
12 14 8 9
14 15 9 10


>  <atomInfo>  (1) 
1  -0.0627736C 
2  -0.0471324C 
3  -0.0627736C 
4  -0.0509643C 
5  -0.0527981C 
6  -0.0504160C 
7  -0.0408749C 
8  -0.0622236C 
9  -0.0323484C 
10 -0.0346404C 
11 -0.0468312C 
12 -0.0360290C 
13 -0.0620365C 
14 0.02135912C 
15 0.20053033C 
16 0.43996899N 
17 -0.7400009NA


$$$$
