
     RDKit          3D

 24 25  0  0  0  0  0  0  0  0999 V2000
    0.6030    1.2025   -0.3394 C   0  0  0  0  0  0  0  0  0  0  0  0
    2.0104    0.6556   -0.5828 C   0  0  1  0  0  0  0  0  0  0  0  0
    2.9464    1.7392   -0.0807 C   0  0  0  0  0  0  0  0  0  0  0  0
    4.3810    1.3279   -0.1249 C   0  0  2  0  0  0  0  0  0  0  0  0
    5.0532    1.6838   -1.2680 O   0  0  0  0  0  0  0  0  0  0  0  0
    4.5925   -0.1150    0.2822 C   0  0  2  0  0  0  0  0  0  0  0  0
    4.8013   -0.9087   -0.8384 O   0  0  0  0  0  0  0  0  0  0  0  0
    3.3622   -0.5755    1.0456 C   0  0  1  0  0  0  0  0  0  0  0  0
    3.0089    0.3385    2.0149 O   0  0  0  0  0  0  0  0  0  0  0  0
    2.2387   -0.6759    0.0453 C   0  0  1  0  0  0  0  0  0  0  0  0
    1.0413   -1.2154    0.6345 N   0  0  0  0  0  0  0  0  0  0  0  0
    0.0771   -1.4315   -0.4219 C   0  0  0  0  0  3  0  0  0  0  0  0
   -1.2989   -0.9332   -0.0636 C   0  0  2  0  0  0  0  0  0  0  0  0
   -1.7947   -1.5315    1.0909 O   0  0  0  0  0  0  0  0  0  0  0  0
   -2.2811   -0.6078    2.0020 C   0  0  0  0  0  0  0  0  0  0  0  0
   -2.0132    0.7119    1.6001 O   0  0  0  0  0  0  0  0  0  0  0  0
   -3.1600    1.4527    1.6773 N   0  0  0  0  0  0  0  0  0  0  0  0
   -3.7936    1.5413    0.3790 C   0  0  0  0  0  3  0  0  0  0  0  0
   -3.9296    0.1422   -0.2280 C   0  0  1  0  0  0  0  0  0  0  0  0
   -5.2672   -0.0092   -0.5925 O   0  0  0  0  0  0  0  0  0  0  0  0
   -3.0566    0.0077   -1.4566 C   0  0  2  0  0  0  0  0  0  0  0  0
   -3.9066   -0.1088   -2.7027 C   0  0  0  0  0  2  0  0  0  0  0  0
   -2.1891   -1.2178   -1.2611 C   0  0  1  0  0  0  0  0  0  0  0  0
   -1.4253   -1.4732   -2.4034 O   0  0  0  0  0  0  0  0  0  0  0  0
  2  1  1  1
  2  3  1  0
  3  4  1  0
  4  5  1  6
  4  6  1  0
  6  7  1  6
  6  8  1  0
  8  9  1  1
  8 10  1  0
 10 11  1  1
 11 12  1  0
 13 12  1  6
 13 14  1  0
 14 15  1  0
 15 16  1  0
 16 17  1  0
 17 18  1  0
 18 19  1  0
 19 20  1  6
 19 21  1  0
 21 22  1  6
 21 23  1  0
 23 24  1  6
 10  2  1  0
 23 13  1  0
M  RAD  3  12   2  18   2  22   3
M  END
>  <fragInfo>  (1) 
13 14 15 16 17 18 19 20 21 22 23 24
1 2 3 4 5 6 7 8 9 10
11
12


>  <torsionInfo>  (1) 
12 13 3 0
10 11 1 2
11 12 2 3


>  <atomInfo>  (1) 
1  -0.0608233C 
2  -0.0236268C 
3  -0.0201755C 
4  0.08280077C 
5  -0.3903155OA
6  0.10722524C 
7  -0.3876533OA
8  0.09793081C 
9  -0.3886791OA
10 0.03848794C 
11 -0.3042289NA
12 0.05429108C 
13 0.10356155C 
14 -0.3458605OA
15 0.16692624C 
16 -0.2730187OA
17 -0.1923671NA
18 0.07871206C 
19 0.07893948C 
20 -0.3909381OA
21 0.01854530C 
22 -0.0262906C 
23 0.08747915C 
24 -0.3899493OA


$$$$
