
     RDKit          3D

 25 26  0  0  0  0  0  0  0  0999 V2000
   -2.6087    2.5079   -2.2510 C   0  0  0  0  0  0  0  0  0  0  0  0
   -2.9447    1.3475   -1.3740 C   0  0  1  0  0  0  0  0  0  0  0  0
   -2.0368    0.1507   -1.6150 C   0  0  2  0  0  0  0  0  0  0  0  0
   -2.6715   -1.0275   -0.9251 C   0  0  2  0  0  0  0  0  0  0  0  0
   -3.8004   -1.4962   -1.5944 O   0  0  0  0  0  0  0  0  0  0  0  0
   -2.9018   -0.8102    0.5336 C   0  0  2  0  0  0  0  0  0  0  0  0
   -3.8468   -1.7484    0.9601 O   0  0  0  0  0  0  0  0  0  0  0  0
   -3.3741    0.5382    0.9125 C   0  0  1  0  0  0  0  0  0  0  0  0
   -3.0130    0.7721    2.2539 O   0  0  0  0  0  0  0  0  0  0  0  0
   -2.8612    1.6642    0.0958 C   0  0  1  0  0  0  0  0  0  0  0  0
   -1.5544    2.1083    0.5032 N   0  0  0  0  0  0  0  0  0  0  0  0
   -0.5247    1.7764   -0.4590 C   0  0  0  0  0  3  0  0  0  0  0  0
   -0.6772    0.3734   -0.9927 C   0  0  1  0  0  0  0  0  0  0  0  0
   -0.3776   -0.6658    0.0653 C   0  0  1  0  0  0  0  0  0  0  0  0
   -0.4194   -2.0225   -0.6491 C   0  0  0  0  0  0  0  0  0  0  0  0
   -0.1350   -3.1458    0.3033 C   0  0  0  0  0  3  0  0  0  0  0  0
    0.0976   -2.6826    1.6042 O   0  0  0  0  0  0  0  0  0  0  0  0
    0.9303   -0.5000    0.4973 O   0  0  0  0  0  0  0  0  0  0  0  0
    1.8290   -0.6532   -0.5583 C   0  0  0  0  0  0  0  0  0  0  0  0
    3.1392   -0.4943   -0.1623 O   0  0  0  0  0  0  0  0  0  0  0  0
    3.9400   -0.6691   -1.2968 C   0  0  0  0  0  3  0  0  0  0  0  0
    5.1831    0.1573   -1.2179 C   0  0  0  0  0  3  0  0  0  0  0  0
    5.4639    0.6449    0.1796 C   0  0  0  0  0  3  0  0  0  0  0  0
    6.6935    1.3220    0.1327 O   0  0  0  0  0  0  0  0  0  0  0  0
    6.4707    2.5525   -0.3009 O   0  0  0  0  0  0  0  0  0  0  0  0
  2  1  1  6
  2  3  1  0
  3  4  1  1
  4  5  1  6
  4  6  1  0
  6  7  1  6
  6  8  1  0
  8  9  1  1
  8 10  1  0
 10 11  1  1
 11 12  1  0
 13 12  1  1
 13 14  1  0
 14 15  1  6
 15 16  1  0
 16 17  1  0
 14 18  1  0
 18 19  1  0
 19 20  1  0
 20 21  1  0
 21 22  1  0
 22 23  1  0
 23 24  1  0
 24 25  1  0
 10  2  1  0
 13  3  1  0
M  RAD  5  12   2  16   2  21   2  22   2  23   2
M  END
>  <fragInfo>  (1) 
1 2 3 4 5 6 7 8 9 10 11 12 13
14
15
16 17
18
19
20
21
22
23
24 25


>  <torsionInfo>  (1) 
13 14 0 1
14 15 1 2
14 18 1 4
15 16 2 3
18 19 4 5
19 20 5 6
20 21 6 7
21 22 7 8
22 23 8 9
23 24 9 10


>  <atomInfo>  (1) 
1  -0.0605430C 
2  -0.0203572C 
3  -0.0015879C 
4  0.08602435C 
5  -0.3900098OA
6  0.10751321C 
7  -0.3876415OA
8  0.09795167C 
9  -0.3886787OA
10 0.03868072C 
11 -0.3063483NA
12 0.02851567C 
13 0.00787777C 
14 0.06763655C 
15 0.00249549C 
16 0.08244633C 
17 -0.3903313OA
18 -0.3517172OA
19 0.14712792C 
20 -0.3490590OA
21 0.09296490C 
22 0.02807196C 
23 0.12813937C 
24 -0.2327880OA
25 -0.2514270OA


$$$$
