
     RDKit          3D

 25 26  0  0  0  0  0  0  0  0999 V2000
   -0.9662   -1.3454   -0.3580 C   0  0  0  0  0  0  0  0  0  0  0  0
   -2.1040   -0.5686   -0.9467 C   0  0  1  0  0  0  0  0  0  0  0  0
   -3.2225   -1.5576   -1.2111 C   0  0  0  0  0  0  0  0  0  0  0  0
   -4.4868   -0.8767   -1.6461 C   0  0  2  0  0  0  0  0  0  0  0  0
   -4.1392   -0.0085   -2.7025 O   0  0  0  0  0  0  0  0  0  0  0  0
   -4.9158    0.0304   -0.4864 C   0  0  2  0  0  0  0  0  0  0  0  0
   -6.1711    0.5530   -0.6966 O   0  0  0  0  0  0  0  0  0  0  0  0
   -3.8770    1.1197   -0.3979 C   0  0  1  0  0  0  0  0  0  0  0  0
   -4.2605    1.9432    0.6850 O   0  0  0  0  0  0  0  0  0  0  0  0
   -2.5200    0.5925   -0.1131 C   0  0  1  0  0  0  0  0  0  0  0  0
   -2.3226    0.4254    1.2951 N   0  0  0  0  0  0  0  0  0  0  0  0
   -1.0198    0.9900    1.6247 C   0  0  0  0  0  3  0  0  0  0  0  0
   -0.1414    0.8973    0.4147 C   0  0  0  0  0  0  0  0  0  0  0  0
    0.2100   -0.5039    0.0403 C   0  0  2  0  0  0  0  0  0  0  0  0
    1.0633   -0.4314   -1.0826 O   0  0  0  0  0  0  0  0  0  0  0  0
    0.8465   -1.1756    1.0876 O   0  0  0  0  0  0  0  0  0  0  0  0
    2.0037   -0.5731    1.5042 C   0  0  2  0  0  0  0  0  0  0  0  0
    1.7098    0.7081    1.9437 O   0  0  0  0  0  0  0  0  0  0  0  0
    3.0934   -0.5573    0.4551 C   0  0  2  0  0  0  0  0  0  0  0  0
    3.4511   -1.8354    0.0620 O   0  0  0  0  0  0  0  0  0  0  0  0
    4.3292    0.0741    1.0802 C   0  0  0  0  0  3  0  0  0  0  0  0
    5.4515    0.1122    0.0650 C   0  0  0  0  0  0  0  0  0  0  0  0
    5.0182    0.9302   -1.1286 C   0  0  0  0  0  3  0  0  0  0  0  0
    6.0296    0.9814   -2.0762 O   0  0  0  0  0  0  0  0  0  0  0  0
    6.9408    0.0763   -1.7859 O   0  0  0  0  0  0  0  0  0  0  0  0
  2  1  1  1
  2  3  1  0
  3  4  1  0
  4  5  1  6
  4  6  1  0
  6  7  1  6
  6  8  1  0
  8  9  1  1
  8 10  1  0
 10 11  1  1
 11 12  1  0
 12 13  1  0
 13 14  1  0
 14 15  1  6
 14 16  1  0
 16 17  1  0
 17 18  1  6
 17 19  1  0
 19 20  1  1
 19 21  1  0
 21 22  1  0
 22 23  1  0
 23 24  1  0
 24 25  1  0
 14  1  1  0
 10  2  1  0
M  RAD  3  12   2  21   2  23   2
M  END
>  <fragInfo>  (1) 
1 2 3 4 5 6 7 8 9 10 11 12 13 14 15
16
17 18
19 20
21
22
23
24 25


>  <torsionInfo>  (1) 
14 16 0 1
16 17 1 2
17 19 2 3
19 21 3 4
21 22 4 5
22 23 5 6
23 24 6 7


>  <atomInfo>  (1) 
1  0.00587789C 
2  -0.0156699C 
3  -0.0197108C 
4  0.08281449C 
5  -0.3903153OA
6  0.10722566C 
7  -0.3876533OA
8  0.09794322C 
9  -0.3886789OA
10 0.03885631C 
11 -0.3065387NA
12 0.02778425C 
13 0.01826587C 
14 0.17008711C 
15 -0.3652461OA
16 -0.3187209OA
17 0.18396635C 
18 -0.3657197OA
19 0.10804913C 
20 -0.3875314OA
21 -0.0019700C 
22 -0.0149507C 
23 0.12230196C 
24 -0.2332098OA
25 -0.2514394OA


$$$$
