
     RDKit          3D

 17 17  0  0  0  0  0  0  0  0999 V2000
   -0.8098   -1.2223   -0.3981 O   0  0  0  0  0  0  0  0  0  0  0  0
   -0.2144   -1.3023   -1.6313 C   0  0  0  0  0  0  0  0  0  0  0  0
    0.5251   -0.0835   -2.0581 C   0  0  0  0  0  3  0  0  0  0  0  0
    1.9313   -0.0960   -1.6304 N   0  0  0  0  0  0  0  0  0  0  0  0
    1.9346    0.3573   -0.2501 C   0  0  2  0  0  0  0  0  0  0  0  0
    3.2950    0.7088    0.2544 C   0  0  0  0  0  0  0  0  0  0  0  0
    3.8583    1.7239   -0.4940 O   0  0  0  0  0  0  0  0  0  0  0  0
    1.2549   -0.6747    0.5799 C   0  0  1  0  0  0  0  0  0  0  0  0
    2.0658   -1.7343    0.9511 O   0  0  0  0  0  0  0  0  0  0  0  0
    0.4879   -0.1393    1.7363 C   0  0  2  0  0  0  0  0  0  0  0  0
    0.3860   -1.1276    2.7017 O   0  0  0  0  0  0  0  0  0  0  0  0
   -0.8432    0.4157    1.3510 C   0  0  0  0  0  3  0  0  0  0  0  0
   -1.2713    0.0197   -0.0506 C   0  0  2  0  0  0  0  0  0  0  0  0
   -2.7897   -0.0385   -0.0322 C   0  0  2  0  0  0  0  0  0  0  0  0
   -3.3234   -0.3847   -1.2592 O   0  0  0  0  0  1  0  0  0  0  0  0
   -3.4030    1.2315    0.4853 C   0  0  0  0  0  0  0  0  0  0  0  0
   -3.0839    2.3463   -0.2557 O   0  0  0  0  0  1  0  0  0  0  0  0
  1  2  1  0
  2  3  1  0
  3  4  1  0
  4  5  1  0
  5  6  1  1
  6  7  1  0
  5  8  1  0
  8  9  1  1
  8 10  1  0
 10 11  1  1
 10 12  1  0
 13 12  1  1
 13 14  1  0
 14 15  1  6
 14 16  1  0
 16 17  1  0
 13  1  1  0
M  CHG  2  15  -1  17  -1
M  RAD  2   3   2  12   2
M  END
>  <fragInfo>  (1) 
1 2 3 4 5 8 9 10 11 12 13
6 7
14 15
16 17


>  <torsionInfo>  (1) 
5 6 0 1
13 14 0 2
14 16 2 3


>  <atomInfo>  (1) 
1  -0.3773006OA
2  0.06387823C 
3  0.04838518C 
4  -0.3028689NA
5  0.05917786C 
6  0.06106343C 
7  -0.3946489OA
8  0.09774719C 
9  -0.3886905OA
10 0.08719510C 
11 -0.3899597OA
12 0.02043191C 
13 0.04973261C 
14 -0.1150796C 
15 -0.8510532OA
16 -0.1504314C 
17 -0.8551198OA


$$$$
