
     RDKit          3D

 25 24  0  0  0  0  0  0  0  0999 V2000
    8.0074    1.4588   -0.9605 N   0  0  0  0  0  0  0  0  0  0  0  0
    6.8071    1.3467   -0.6235 C   0  0  0  0  0  0  0  0  0  0  0  0
    5.3788    1.2266   -0.2087 C   0  0  0  0  0  0  0  0  0  0  0  0
    4.6244    0.6553   -1.1012 C   0  0  0  0  0  0  0  0  0  0  0  0
    3.1591    0.4437   -0.8919 C   0  0  0  0  0  0  0  0  0  0  0  0
    2.5973   -0.1669   -2.0202 C   0  0  0  0  0  0  0  0  0  0  0  0
    3.2876   -0.5236   -3.1529 C   0  0  0  0  0  3  0  0  0  0  0  0
    3.4008    0.6045   -4.1509 C   0  0  0  0  0  0  0  0  0  0  0  0
    1.1266   -0.5446   -1.7244 C   0  0  0  0  0  3  0  0  0  0  0  0
    1.0887   -0.6821   -0.3017 O   0  0  0  0  0  0  0  0  0  0  0  0
    0.7579   -1.9438    0.0819 C   0  0  2  0  0  0  0  0  0  0  0  0
   -0.6460   -2.1295   -0.3100 O   0  0  0  0  0  0  0  0  0  0  0  0
   -1.2662   -1.1291    0.3999 N   0  0  0  0  0  0  0  0  0  0  0  0
   -1.5004   -0.1103   -0.6618 C   0  0  0  0  0  0  0  0  0  0  0  0
   -2.1803    1.1027   -0.1538 C   0  0  0  0  0  3  0  0  0  0  0  0
   -3.5929    1.1509   -0.3452 C   0  0  0  0  0  0  0  0  0  0  0  0
   -4.6406    1.0337    0.1872 N   0  0  0  0  0  0  0  0  0  0  0  0
   -4.7796    0.6595    1.6706 C   0  0  0  0  0  0  0  0  0  0  0  0
   -6.0369    0.9595    2.0809 N   0  0  0  0  0  3  0  0  0  0  0  0
   -6.9502    1.3368    2.6422 C   0  0  0  0  0  0  0  0  0  0  0  0
   -7.0436    2.0858    3.8603 O   0  0  0  0  0  0  0  0  0  0  0  0
   -5.8129    2.1915    4.5972 C   0  0  0  0  0  0  0  0  0  0  0  0
    0.7805   -2.1437    1.6004 C   0  0  0  0  0  0  0  0  0  0  0  0
    1.4085   -2.9552   -0.4925 N   0  0  0  0  0  4  0  0  0  0  0  0
    2.0249   -3.9269   -1.0655 C   0  0  0  0  0  0  0  0  0  0  0  0
  1  2  3  0
  2  3  1  0
  3  4  2  3
  4  5  1  0
  5  6  2  3
  6  7  1  0
  7  8  1  0
  6  9  1  0
  9 10  1  0
 10 11  1  0
 11 12  1  0
 12 13  1  0
 13 14  1  0
 14 15  1  0
 15 16  1  0
 16 17  2  3
 17 18  1  0
 18 19  1  0
 19 20  2  3
 20 21  1  0
 21 22  1  0
 11 23  1  1
 11 24  1  0
 24 25  3  0
M  CHG  2  19   1  24   1
M  RAD  4   7   2   9   2  15   2  19   2
M  END
>  <fragInfo>  (1) 
1 2 3 4
5 6
7 8
9
10
11 23 24 25
12
13
14
15
16 17
18
19 20
21 22


>  <torsionInfo>  (1) 
4 5 0 1
6 7 1 2
6 9 1 3
9 10 3 4
10 11 4 5
11 12 5 6
12 13 6 7
13 14 7 8
14 15 8 9
15 16 9 10
17 18 10 11
18 19 11 12
20 21 12 13


>  <atomInfo>  (1) 
1  -0.1930989NA
2  0.09115216C 
3  0.01568968C 
4  -0.0517076C 
5  -0.0593616C 
6  -0.0348096C 
7  -0.0137618C 
8  -0.0580609C 
9  0.12079657C 
10 -0.2687916OA
11 0.51389114C 
12 -0.1917919OA
13 -0.1915837NA
14 0.02984049C 
15 0.01796209C 
16 0.01091730C 
17 -0.2267088NA
18 0.30500352C 
19 0.08284343N 
20 0.39229228C 
21 -0.4492743OA
22 0.08316812C 
23 0.07908332C 
24 -0.0117398N 
25 0.26608878C 


$$$$
