
     RDKit          3D

 18 20  0  0  0  0  0  0  0  0999 V2000
   -1.8830    0.1007   -0.8629 O   0  0  0  0  0  0  0  0  0  0  0  0
   -1.2075    0.1032    0.1883 C   0  0  0  0  0  0  0  0  0  0  0  0
   -1.4344   -0.6652    1.4004 C   0  0  0  0  0  0  0  0  0  0  0  0
   -2.1978   -1.7627    1.6945 C   0  0  0  0  0  0  0  0  0  0  0  0
   -2.2528   -2.3244    2.9428 C   0  0  0  0  0  0  0  0  0  0  0  0
   -1.5154   -1.7747    3.9570 C   0  0  0  0  0  0  0  0  0  0  0  0
   -0.7338   -0.6697    3.7040 C   0  0  0  0  0  0  0  0  0  0  0  0
   -0.6873   -0.1143    2.4433 C   0  0  0  0  0  0  0  0  0  0  0  0
    0.0601    1.0492    1.9289 C   0  0  0  0  0  0  0  0  0  0  0  0
    0.6269    1.9709    2.5659 O   0  0  0  0  0  0  0  0  0  0  0  0
    0.0069    0.9083    0.4463 C   0  0  0  0  0  0  0  0  0  0  0  0
    1.2596    0.2817   -0.1010 C   0  0  2  0  0  0  0  0  0  0  0  0
    1.2240    0.0767   -1.5636 C   0  0  0  0  0  0  0  0  0  0  0  0
    1.6962    0.6669   -2.6473 C   0  0  0  0  0  0  0  0  0  0  0  0
    2.4946    1.8713   -2.4939 C   0  0  0  0  0  0  0  0  0  0  0  0
    2.9319    2.4151   -3.5237 O   0  0  0  0  0  0  0  0  0  0  0  0
    1.1533   -1.1054   -0.0874 O   0  0  0  0  0  0  0  0  0  0  0  0
    0.4586   -1.0274   -1.2257 O   0  0  0  0  0  0  0  0  0  0  0  0
  1  2  2  0
  2  3  1  0
  3  4  2  0
  4  5  1  0
  5  6  2  0
  6  7  1  0
  7  8  2  0
  8  9  1  0
  9 10  2  0
  9 11  1  0
 12 11  1  1
 12 13  1  0
 13 14  2  3
 14 15  1  0
 15 16  2  0
 12 17  1  0
 17 18  1  0
 11  2  1  0
  8  3  1  0
 18 13  1  0
M  END
>  <fragInfo>  (1) 
1 2 3 4 5 6 7 8 9 10 11
12 13 14 17 18
15 16


>  <torsionInfo>  (1) 
11 12 0 1
14 15 1 2


>  <atomInfo>  (1) 
1  -0.2932049OA
2  0.17723079C 
3  0.02924509A 
4  -0.0506507A 
5  -0.0614976A 
6  -0.0614976A 
7  -0.0506507A 
8  0.02924509A 
9  0.17723079C 
10 -0.2932049OA
11 0.12347943C 
12 0.18284055C 
13 0.17965116C 
14 0.02278215C 
15 0.14594171C 
16 -0.2984248OA
17 -0.1757046OA
18 -0.3381166OA


$$$$
