
     RDKit          3D

 26 29  0  0  0  0  0  0  0  0999 V2000
    2.7640    1.0074    1.2813 C   0  0  0  0  0  0  0  0  0  0  0  0
    1.9226    1.9083    0.4111 C   0  0  2  0  0  0  0  0  0  0  0  0
    2.8571    2.9304   -0.2187 C   0  0  0  0  0  0  0  0  0  0  0  0
    0.8884    2.6761    1.1920 C   0  0  0  0  0  0  0  0  0  0  0  0
   -0.3074    3.0668    0.3416 C   0  0  0  0  0  0  0  0  0  0  0  0
   -1.0455    1.7830    0.0341 C   0  0  1  0  0  0  0  0  0  0  0  0
   -2.3775    1.7003    0.7232 C   0  0  0  0  0  0  0  0  0  0  0  0
   -3.0908    0.5696   -0.0309 C   0  0  2  0  0  0  0  0  0  0  0  0
   -2.9466   -0.6614    0.8125 C   0  0  1  0  0  0  0  0  0  0  0  0
   -3.3713   -1.9209    0.1215 C   0  0  0  0  0  0  0  0  0  0  0  0
   -1.3725    1.5929   -1.4050 C   0  0  0  0  0  0  0  0  0  0  0  0
   -2.4143    0.4816   -1.3634 C   0  0  1  0  0  0  0  0  0  0  0  0
   -1.8722   -0.8556   -1.7066 C   0  0  0  0  0  0  0  0  0  0  0  0
   -0.3940   -0.9106   -1.7000 C   0  0  0  0  0  0  0  0  0  0  0  0
    0.2117   -2.2586   -1.7781 C   0  0  0  0  0  0  0  0  0  0  0  0
    1.7194   -2.1385   -1.7478 C   0  0  2  0  0  0  0  0  0  0  0  0
    2.2454   -2.0644   -0.4009 N   0  0  0  0  0  2  0  0  0  0  0  0
    2.0509   -0.7454   -2.2960 C   0  0  0  0  0  0  0  0  0  0  0  0
    1.6731    0.1135   -1.1287 C   0  0  0  0  0  0  0  0  0  0  0  0
    2.0449   -0.7181    0.0598 C   0  0  1  0  0  0  0  0  0  0  0  0
    1.0281   -0.6486    1.1796 C   0  0  0  0  0  2  0  0  0  0  0  0
    0.5161   -1.9876    1.5983 C   0  0  0  0  0  0  0  0  0  0  0  0
   -0.9851   -2.1077    1.4264 C   0  0  0  0  0  3  0  0  0  0  0  0
   -1.5593   -0.7366    1.3860 C   0  0  2  0  0  0  0  0  0  0  0  0
   -1.4025    0.0541    2.6375 C   0  0  0  0  0  0  0  0  0  0  0  0
    3.2173   -0.1300    0.5712 O   0  0  0  0  0  0  0  0  0  0  0  0
  1  2  1  0
  2  3  1  1
  2  4  1  0
  4  5  1  0
  6  5  1  6
  6  7  1  0
  8  7  1  1
  8  9  1  0
  9 10  1  6
  6 11  1  0
 12 11  1  1
 12 13  1  0
 13 14  1  0
 14 15  1  0
 15 16  1  0
 16 17  1  0
 16 18  1  6
 18 19  1  0
 20 19  1  6
 20 21  1  0
 21 22  1  0
 22 23  1  0
 23 24  1  0
 24 25  1  1
 20 26  1  0
 26  1  1  0
 12  8  1  0
 24  9  1  0
 20 17  1  0
M  CHG  1  17   1
M  RAD  3  17   3  21   3  23   2
M  END
>  <fragInfo>  (1) 
1 2 3 4 5 6 7 8 9 10 11 12 13 14 15 16 17 18 19 20 21 22 23 24 25 26


>  <torsionInfo>  (1) 


>  <atomInfo>  (1) 
1  0.05620189C 
2  -0.0203979C 
3  -0.0603029C 
4  -0.0482457C 
5  -0.0500884C 
6  -0.0408595C 
7  -0.0470502C 
8  -0.0354667C 
9  -0.0383047C 
10 -0.0619687C 
11 -0.0473046C 
12 -0.0380424C 
13 -0.0499261C 
14 -0.0469491C 
15 0.01040972C 
16 0.19712059C 
17 0.09851282N 
18 0.01939223C 
19 0.04697797C 
20 0.31210074C 
21 0.09419940C 
22 -0.0332515C 
23 -0.0345105C 
24 -0.0382774C 
25 -0.0619683C 
26 -0.3179653OA


$$$$
