
     RDKit          3D

 16 16  0  0  0  0  0  0  0  0999 V2000
   -2.4001   -1.3588    1.4513 C   0  0  0  0  0  0  0  0  0  0  0  0
   -1.5819   -0.7461    0.3082 C   0  0  1  0  0  0  0  0  0  0  0  0
   -1.0903   -1.8659   -0.4406 O   0  0  0  0  0  0  0  0  0  0  0  0
    0.2710   -2.0342   -0.6514 C   0  0  0  0  0  0  0  0  0  0  0  0
    1.1016   -1.7420    0.3508 C   0  0  0  0  0  0  0  0  0  0  0  0
    2.4569   -1.9220    0.1051 O   0  0  0  0  0  0  0  0  0  0  0  0
    3.1928   -0.9758   -0.6592 C   0  0  0  0  0  0  0  0  0  0  0  0
    3.4107    0.3043    0.1241 C   0  0  0  0  0  0  0  0  0  0  0  0
    2.3043    1.2985   -0.2323 C   0  0  0  0  0  0  0  0  0  0  0  0
    1.9041    1.9920    1.0598 C   0  0  0  0  0  3  0  0  0  0  0  0
    0.6529    2.7899    0.8467 C   0  0  0  0  0  0  0  0  0  0  0  0
   -0.4692    1.8115    0.6202 C   0  0  0  0  0  0  0  0  0  0  0  0
   -1.2075    1.9925   -0.4372 C   0  0  0  0  0  0  0  0  0  0  0  0
   -2.2966    1.2161   -0.8477 N   0  0  0  0  0  0  0  0  0  0  0  0
   -2.5281    0.0041   -0.5594 C   0  0  0  0  0  0  0  0  0  0  0  0
   -3.7205   -0.7642   -1.0382 C   0  0  0  0  0  0  0  0  0  0  0  0
  2  1  1  1
  2  3  1  0
  3  4  1  0
  4  5  2  3
  5  6  1  0
  6  7  1  0
  7  8  1  0
  8  9  1  0
  9 10  1  0
 10 11  1  0
 11 12  1  0
 12 13  2  3
 13 14  1  0
 14 15  2  3
 15 16  1  0
 15  2  1  0
M  RAD  1  10   2
M  END
>  <fragInfo>  (1) 
1 2 3 4 5 6 7 8 9 10 11 12 13 14 15 16


>  <torsionInfo>  (1) 


>  <atomInfo>  (1) 
1  -0.0222381C 
2  0.13283910C 
3  -0.4891924OA
4  0.11831838C 
5  0.11734773C 
6  -0.4980044OA
7  0.08746884C 
8  -0.0184928C 
9  -0.0466361C 
10 -0.0346293C 
11 -0.0301222C 
12 -0.0658772C 
13 0.02284132C 
14 -0.2624260NA
15 0.05485416C 
16 -0.0224311C 


$$$$
