
     RDKit          3D

 15 15  0  0  0  0  0  0  0  0999 V2000
   -0.0380   -2.6916    0.7500 C   0  0  0  0  0  0  0  0  0  0  0  0
    0.0357   -1.7393   -0.4228 C   0  0  0  0  0  3  0  0  0  0  0  0
    0.1525   -0.3129    0.0433 C   0  0  2  0  0  0  0  0  0  0  0  0
   -0.9920    0.1464    0.8822 C   0  0  2  0  0  0  0  0  0  0  0  0
   -1.5181   -0.9928    1.5355 O   0  0  0  0  0  0  0  0  0  0  0  0
   -2.1206    0.7311    0.0593 C   0  0  2  0  0  0  0  0  0  0  0  0
   -3.3520    0.2097    0.3717 O   0  0  0  0  0  0  0  0  0  0  0  0
   -1.7475    0.4915   -1.3931 C   0  0  1  0  0  0  0  0  0  0  0  0
   -2.7730    0.8345   -2.2566 O   0  0  0  0  0  0  0  0  0  0  0  0
   -0.5969    1.2733   -1.6183 O   0  0  0  0  0  0  0  0  0  0  0  0
    0.4716    0.5612   -1.1181 C   0  0  1  0  0  0  0  0  0  0  0  0
    1.7258    1.3673   -0.9643 C   0  0  0  0  0  3  0  0  0  0  0  0
    2.8531    0.4030   -0.7844 C   0  0  0  0  0  0  0  0  0  0  0  0
    3.4220    0.3124    0.3876 C   0  0  0  0  0  0  0  0  0  0  0  0
    4.4772   -0.5938    0.5465 O   0  0  0  0  0  0  0  0  0  0  0  0
  1  2  1  0
  3  2  1  6
  3  4  1  0
  4  5  1  6
  4  6  1  0
  6  7  1  1
  6  8  1  0
  8  9  1  6
  8 10  1  0
 10 11  1  0
 11 12  1  1
 12 13  1  0
 13 14  2  3
 14 15  1  0
 11  3  1  0
M  RAD  2   2   2  12   2
M  END
>  <fragInfo>  (1) 
3 4 5 6 7 8 9 10 11
1 2
12
13 14 15


>  <torsionInfo>  (1) 
2 3 1 0
11 12 0 2
12 13 2 3


>  <atomInfo>  (1) 
1  -0.0617807C 
2  -0.0333094C 
3  0.01741734C 
4  0.09044897C 
5  -0.3898174OA
6  0.13077503C 
7  -0.3850909OA
8  0.18326364C 
9  -0.3657351OA
10 -0.3457494OA
11 0.07345203C 
12 0.01575024C 
13 -0.0437009C 
14 0.07552942C 
15 -0.5159178OA


$$$$
