
     RDKit          3D

 80 82  0  0  0  0  0  0  0  0999 V2000
   -2.5927   -1.1615   -0.7292 C   0  0  2  0  0  0  0  0  0  0  0  0
   -3.6369   -1.4719    0.3171 C   0  0  1  0  0  0  0  0  0  0  0  0
   -3.5872   -0.4011    1.3772 C   0  0  0  0  0  0  0  0  0  0  0  0
   -4.9984   -1.5136   -0.3520 C   0  0  0  0  0  0  0  0  0  0  0  0
   -5.0883   -0.5565   -1.5056 C   0  0  0  0  0  0  0  0  0  0  0  0
   -6.1727   -0.9121   -2.4725 C   0  0  0  0  0  0  0  0  0  0  0  0
   -7.2556    0.1343   -2.3688 C   0  0  1  0  0  0  0  0  0  0  0  0
   -8.4018   -0.1949   -3.2741 C   0  0  0  0  0  0  0  0  0  0  0  0
   -7.7687    0.2950   -0.9631 C   0  0  0  0  0  3  0  0  0  0  0  0
   -6.7241    0.8894   -0.0553 C   0  0  0  0  0  0  0  0  0  0  0  0
   -7.0302    2.2988    0.3592 C   0  0  2  0  0  0  0  0  0  0  0  0
   -8.4144    2.7416    0.0270 C   0  0  0  0  0  3  0  0  0  0  0  0
   -8.7460    2.6575   -1.4415 C   0  0  0  0  0  0  0  0  0  0  0  0
   -9.3798    1.9670    0.8923 C   0  0  0  0  0  3  0  0  0  0  0  0
   -8.7283    1.8336    2.2688 C   0  0  0  0  0  0  0  0  0  0  0  0
   -8.8813    3.1875    2.9403 C   0  0  1  0  0  0  0  0  0  0  0  0
   -9.9155    3.0125    4.0420 C   0  0  0  0  0  0  0  0  0  0  0  0
   -7.5598    3.6764    3.4748 C   0  0  0  0  0  0  0  0  0  0  0  0
   -7.4511    5.1731    3.5135 C   0  0  0  0  0  0  0  0  0  0  0  0
   -7.2900    5.7627    2.1131 C   0  0  2  0  0  0  0  0  0  0  0  0
   -8.2403    6.8055    2.0296 O   0  0  0  0  0  0  0  0  0  0  0  0
   -7.5871    4.7124    1.0800 C   0  0  0  0  0  0  0  0  0  0  0  0
   -6.5564    4.6725   -0.0286 C   0  0  0  0  0  0  0  0  0  0  0  0
   -5.9686    3.2872   -0.0671 C   0  0  1  0  0  0  0  0  0  0  0  0
   -4.8747    3.2359    0.9862 C   0  0  0  0  0  0  0  0  0  0  0  0
   -5.3492    2.9604   -1.3937 C   0  0  0  0  0  0  0  0  0  0  0  0
   -3.5351    2.7884   -1.2442 S   0  0  0  0  0  0  0  0  0  0  0  0
   -3.1136    1.2466   -0.3882 C   0  0  0  0  0  0  0  0  0  0  0  0
   -2.7968    0.1648   -1.3927 C   0  0  1  0  0  0  0  0  0  0  0  0
   -1.5037    0.5268   -2.1296 C   0  0  0  0  0  2  0  0  0  0  0  0
   -0.6491    1.3635   -1.1828 C   0  0  0  0  0  0  0  0  0  0  0  0
   -0.5525    0.6005    0.1216 C   0  0  2  0  0  0  0  0  0  0  0  0
   -0.5775    1.5359    1.3149 C   0  0  0  0  0  0  0  0  0  0  0  0
    0.7933   -0.1023    0.1227 C   0  0  0  0  0  0  0  0  0  0  0  0
    1.8444    0.9563    0.4485 C   0  0  0  0  0  0  0  0  0  0  0  0
    1.3716    2.3347    0.1223 C   0  0  0  0  0  0  0  0  0  0  0  0
    2.0997    0.8404    1.9509 C   0  0  0  0  0  0  0  0  0  0  0  0
    3.1153    0.6358   -0.3331 C   0  0  0  0  0  0  0  0  0  0  0  0
    4.1318    1.6867   -0.0102 C   0  0  0  0  0  0  0  0  0  0  0  0
    5.1399    1.1314    0.9562 C   0  0  2  0  0  0  0  0  0  0  0  0
    6.0131    2.1060    1.3985 O   0  0  0  0  0  0  0  0  0  0  0  0
    5.8145   -0.0666    0.3669 C   0  0  1  0  0  0  0  0  0  0  0  0
    6.2228    0.2750   -1.0579 C   0  0  0  0  0  0  0  0  0  0  0  0
    7.0012   -0.4485    1.1902 C   0  0  2  0  0  0  0  0  0  0  0  0
    6.5503   -0.7717    2.5965 C   0  0  0  0  0  0  0  0  0  0  0  0
    7.9795    0.6807    1.2399 C   0  0  0  0  0  0  0  0  0  0  0  0
    8.4704    1.0579   -0.1257 C   0  0  0  0  0  0  0  0  0  0  0  0
    9.4409    2.1695   -0.1111 C   0  0  0  0  0  0  0  0  0  0  0  0
   10.0252    2.6758   -1.3856 C   0  0  0  0  0  0  0  0  0  0  0  0
    9.8186    2.7432    1.0015 C   0  0  0  0  0  0  0  0  0  0  0  0
    9.2848    2.2980    2.3049 C   0  0  0  0  0  0  0  0  0  0  0  0
    8.5715    3.4567    2.9678 C   0  0  0  0  0  2  0  0  0  0  0  0
    9.5857    4.5431    3.3085 C   0  0  0  0  0  2  0  0  0  0  0  0
   11.0854    3.7379    3.9213 S   0  0  0  0  0  0  0  0  0  0  0  0
   12.4632    3.9231    2.7588 C   0  0  0  0  0  0  0  0  0  0  0  0
   12.9066    5.3534    2.6278 C   0  0  0  0  0  0  0  0  0  0  0  0
    4.8099   -1.2086    0.3113 C   0  0  0  0  0  0  0  0  0  0  0  0
    5.4191   -2.4997   -0.1485 C   0  0  2  0  0  0  0  0  0  0  0  0
    6.7036   -2.8139    0.5616 C   0  0  0  0  0  0  0  0  0  0  0  0
    5.5986   -2.4719   -1.6413 C   0  0  0  0  0  0  0  0  0  0  0  0
    6.8530   -3.2728   -1.9671 C   0  0  0  0  0  0  0  0  0  0  0  0
    6.6035   -4.2001   -3.1198 C   0  0  1  0  0  0  0  0  0  0  0  0
    7.9647   -4.7599   -3.5476 C   0  0  0  0  0  0  0  0  0  0  0  0
    5.7388   -5.3568   -2.6623 C   0  0  0  0  0  3  0  0  0  0  0  0
    4.6193   -4.8816   -1.7879 C   0  0  0  0  0  0  0  0  0  0  0  0
    3.2677   -5.3448   -2.2488 C   0  0  0  0  0  0  0  0  0  0  0  0
    2.8430   -6.5144   -1.3862 C   0  0  0  0  0  2  0  0  0  0  0  0
    1.7046   -5.9697   -0.0982 S   0  0  0  0  0  0  0  0  0  0  0  0
    0.1137   -6.5679   -0.4227 O   0  0  0  0  0  0  0  0  0  0  0  0
   -0.4198   -5.9646   -1.5519 C   0  0  0  0  0  0  0  0  0  0  0  0
   -0.9828   -4.5820   -1.2482 C   0  0  0  0  0  3  0  0  0  0  0  0
   -0.1322   -3.5108   -1.9044 C   0  0  0  0  0  0  0  0  0  0  0  0
   -0.7234   -3.1186   -3.2450 C   0  0  0  0  0  0  0  0  0  0  0  0
   -1.5108   -1.8393   -3.1815 C   0  0  0  0  0  2  0  0  0  0  0  0
   -3.0586   -2.3625   -2.0981 S   0  0  1  0  0  0  0  0  0  0  0  0
   -3.6199   -3.6684   -2.1820 C   0  0  0  0  0  0  0  0  0  0  0  0
   -4.7446   -4.3907   -1.5412 C   0  0  0  0  0  2  0  0  0  0  0  0
   -4.3379   -5.0802    0.0790 S   0  0  0  0  0  0  0  0  0  0  0  0
   -5.8654   -5.7757    0.7736 C   0  0  0  0  0  3  0  0  0  0  0  0
   -5.6465   -6.3800    2.1291 C   0  0  0  0  0  0  0  0  0  0  0  0
  1  2  1  1
  2  3  1  1
  2  4  1  0
  4  5  1  0
  5  6  1  0
  6  7  1  0
  7  8  1  6
  7  9  1  0
  9 10  1  0
 11 10  1  6
 11 12  1  0
 12 13  1  0
 12 14  1  0
 14 15  1  0
 15 16  1  0
 16 17  1  1
 16 18  1  0
 18 19  1  0
 19 20  1  0
 20 21  1  1
 20 22  1  0
 22 23  1  0
 23 24  1  0
 24 25  1  1
 24 26  1  0
 26 27  1  0
 27 28  1  0
 29 28  1  1
 29 30  1  0
 30 31  1  0
 31 32  1  0
 32 33  1  1
 32 34  1  0
 34 35  1  0
 35 36  1  0
 35 37  1  0
 35 38  1  0
 38 39  1  0
 39 40  1  0
 40 41  1  6
 40 42  1  0
 42 43  1  6
 42 44  1  0
 44 45  1  1
 44 46  1  0
 46 47  1  0
 47 48  1  0
 48 49  1  0
 48 50  2  3
 50 51  1  0
 51 52  1  0
 52 53  1  0
 53 54  1  0
 54 55  1  0
 55 56  1  0
 42 57  1  0
 57 58  1  0
 58 59  1  1
 58 60  1  0
 60 61  1  0
 61 62  1  0
 62 63  1  1
 62 64  1  0
 64 65  1  0
 65 66  1  0
 66 67  1  0
 67 68  1  0
 68 69  1  0
 69 70  1  0
 70 71  1  0
 71 72  1  0
 72 73  1  0
 73 74  1  0
 74 75  1  0
 75 76  1  1
 76 77  1  0
 77 78  1  0
 78 79  1  0
 79 80  1  0
 29  1  1  0
 75  1  1  0
 24 11  1  0
M  RAD  8   9   2  12   2  14   2  30   3  52   3  53   3  64   2  67   3
M  RAD  4  71   2  74   3  77   3  79   2
M  END
>  <fragInfo>  (1) 
1 2 3 4 5 6 7 8 9 10 11 12 13 14 15 16 17 18 19 20 21 22 23 24 25 26 27 28 29 30 31 32 33 34 35 36 37 38 39 40 41 42 43 57 58 59 60 61 62 63 64 65 66 67 68 69 70 71 72 73 74 75
44 45
46
47
48 49 50
51
52
53
54
55 56
76
77
78
79 80


>  <torsionInfo>  (1) 
42 44 0 1
75 76 0 10
44 46 1 2
46 47 2 3
47 48 3 4
50 51 4 5
51 52 5 6
52 53 6 7
53 54 7 8
54 55 8 9
76 77 10 11
77 78 11 12
78 79 12 13


>  <atomInfo>  (1) 
1  -0.0062922C 
2  -0.0336348C 
3  -0.0615030C 
4  -0.0496968C 
5  -0.0527492C 
6  -0.0504255C 
7  -0.0411494C 
8  -0.0622340C 
9  -0.0354347C 
10 -0.0459585C 
11 -0.0287088C 
12 -0.0201218C 
13 -0.0585361C 
14 -0.0315284C 
15 -0.0470144C 
16 -0.0438904C 
17 -0.0624973C 
18 -0.0482423C 
19 -0.0267546C 
20 0.05401577C 
21 -0.3931308OA
22 -0.0264501C 
23 -0.0443269C 
24 -0.0200238C 
25 -0.0585637C 
26 -0.0010456C 
27 -0.1610749SA
28 -0.0023136C 
29 -0.0149413C 
30 -0.0117636C 
31 -0.0435172C 
32 -0.0431906C 
33 -0.0624682C 
34 -0.0455097C 
35 -0.0350731C 
36 -0.0598978C 
37 -0.0598978C 
38 -0.0456362C 
39 -0.0259503C 
40 0.05961792C 
41 -0.3925514OA
42 -0.0037110C 
43 -0.0568996C 
44 -0.0360799C 
45 -0.0618810C 
46 -0.0463590C 
47 -0.0320325C 
48 -0.0772817C 
49 -0.0439347C 
50 -0.0849589C 
51 -0.0264358C 
52 0.00728196C 
53 0.05642011C 
54 -0.1517291SA
55 -0.0089149C 
56 -0.0561639C 
57 -0.0425405C 
58 -0.0436461C 
59 -0.0624874C 
60 -0.0504251C 
61 -0.0501823C 
62 -0.0411498C 
63 -0.0622340C 
64 -0.0356962C 
65 -0.0484023C 
66 -0.0328780C 
67 0.07893908C 
68 0.00097176SA
69 -0.3143289OA
70 0.06453733C 
71 -0.0114386C 
72 -0.0464846C 
73 -0.0370278C 
74 0.02704498C 
75 -0.2405166S 
76 -0.0067480C 
77 0.05728830C 
78 -0.1469916SA
79 0.01422053C 
80 -0.0522168C 


$$$$
