
     RDKit          2D

 67 67  0  0  0  0  0  0  0  0999 V2000
    6.4598   -7.7942    0.0000 C   0  0  0  0  0  0  0  0  0  0  0  0
    5.7098   -6.4952    0.0000 O   0  0  0  0  0  0  0  0  0  0  0  0
    6.4598   -5.1962    0.0000 C   0  0  0  0  0  3  0  0  0  0  0  0
    5.7098   -3.8971    0.0000 O   0  0  0  0  0  0  0  0  0  0  0  0
    6.4598   -2.5981    0.0000 C   0  0  0  0  0  0  0  0  0  0  0  0
    7.9598   -2.5981    0.0000 C   0  0  0  0  0  0  0  0  0  0  0  0
    5.7098   -1.2990    0.0000 C   0  0  0  0  0  3  0  0  0  0  0  0
    4.2098   -1.2990    0.0000 C   0  0  0  0  0  0  0  0  0  0  0  0
    3.4598   -0.0000    0.0000 C   0  0  0  0  0  3  0  0  0  0  0  0
    1.9598    0.0000    0.0000 C   0  0  0  0  0  0  0  0  0  0  0  0
    1.3858   -1.3858    0.0000 C   0  0  0  0  0  0  0  0  0  0  0  0
    2.4465   -2.4465    0.0000 C   0  0  0  0  0  0  0  0  0  0  0  0
   -0.0000   -1.9598    0.0000 O   0  0  0  0  0  0  0  0  0  0  0  0
   -1.3858   -1.3858    0.0000 C   0  0  0  0  0  0  0  0  0  0  0  0
   -1.9598    0.0000    0.0000 C   0  0  0  0  0  0  0  0  0  0  0  0
   -1.3858    1.3858    0.0000 C   0  0  0  0  0  0  0  0  0  0  0  0
   -2.4465    2.4465    0.0000 O   0  0  0  0  0  0  0  0  0  0  0  0
    0.0000    1.9598    0.0000 C   0  0  0  0  0  0  0  0  0  0  0  0
    0.0000    3.4598    0.0000 O   0  0  0  0  0  0  0  0  0  0  0  0
    1.3858    1.3858    0.0000 C   0  0  0  0  0  0  0  0  0  0  0  0
    2.4465    2.4465    0.0000 O   0  0  0  0  0  0  0  0  0  0  0  0
    3.8954    2.0583    0.0000 C   0  0  0  0  0  3  0  0  0  0  0  0
    4.9560    3.1189    0.0000 O   0  0  0  0  0  0  0  0  0  0  0  0
    3.4598   -2.5981    0.0000 C   0  0  0  0  0  3  0  0  0  0  0  0
    4.2098   -3.8971    0.0000 O   0  0  0  0  0  0  0  0  0  0  0  0
    3.4598   -5.1962    0.0000 O   0  0  0  0  0  0  0  0  0  0  0  0
    4.2098   -6.4952    0.0000 C   0  0  0  0  0  0  0  0  0  0  0  0
    3.4598   -7.7942    0.0000 C   0  0  0  0  0  3  0  0  0  0  0  0
    4.2098   -9.0933    0.0000 C   0  0  0  0  0  0  0  0  0  0  0  0
    5.7098   -9.0933    0.0000 C   0  0  0  0  0  0  0  0  0  0  0  0
    6.4598  -10.3923    0.0000 O   0  0  0  0  0  0  0  0  0  0  0  0
    7.9598  -10.3923    0.0000 C   0  0  0  0  0  0  0  0  0  0  0  0
    8.7098  -11.6913    0.0000 C   0  0  0  0  0  2  0  0  0  0  0  0
    3.4598  -10.3923    0.0000 C   0  0  0  0  0  0  0  0  0  0  0  0
    4.2098  -11.6913    0.0000 C   0  0  0  0  0  2  0  0  0  0  0  0
    1.9598  -10.3923    0.0000 C   0  0  0  0  0  0  0  0  0  0  0  0
    1.2098  -11.6913    0.0000 N   0  0  0  0  0  1  0  0  0  0  0  0
    1.2098   -9.0933    0.0000 O   0  0  0  0  0  0  0  0  0  0  0  0
   -0.2902   -9.0933    0.0000 C   0  0  0  0  0  3  0  0  0  0  0  0
   -1.0402   -7.7942    0.0000 O   0  0  0  0  0  0  0  0  0  0  0  0
   -2.5402   -7.7942    0.0000 C   0  0  0  0  0  3  0  0  0  0  0  0
   -3.2902   -6.4952    0.0000 C   0  0  0  0  0  0  0  0  0  0  0  0
   -2.5402   -5.1962    0.0000 O   0  0  0  0  0  0  0  0  0  0  0  0
   -4.7902   -6.4952    0.0000 C   0  0  0  0  0  0  0  0  0  0  0  0
   -5.5402   -5.1962    0.0000 C   0  0  0  0  0  0  0  0  0  0  0  0
   -7.0402   -5.1962    0.0000 C   0  0  0  0  0  0  0  0  0  0  0  0
   -7.7902   -3.8971    0.0000 O   0  0  0  0  0  0  0  0  0  0  0  0
   -9.2902   -3.8971    0.0000 C   0  0  0  0  0  3  0  0  0  0  0  0
  -10.0402   -2.5981    0.0000 C   0  0  0  0  0  0  0  0  0  0  0  0
  -11.5402   -2.5981    0.0000 O   0  0  0  0  0  1  0  0  0  0  0  0
   -7.7902   -6.4952    0.0000 O   0  0  0  0  0  0  0  0  0  0  0  0
   -9.2902   -6.4952    0.0000 C   0  0  0  0  0  0  0  0  0  0  0  0
  -10.0402   -7.7942    0.0000 C   0  0  0  0  0  3  0  0  0  0  0  0
  -11.5402   -7.7942    0.0000 C   0  0  0  0  0  0  0  0  0  0  0  0
  -12.2902   -9.0933    0.0000 O   0  0  0  0  0  0  0  0  0  0  0  0
  -13.7902   -9.0933    0.0000 C   0  0  0  0  0  0  0  0  0  0  0  0
  -14.5402  -10.3923    0.0000 C   0  0  0  0  0  0  0  0  0  0  0  0
  -14.5402   -7.7942    0.0000 C   0  0  0  0  0  3  0  0  0  0  0  0
  -16.0402   -7.7942    0.0000 C   0  0  0  0  0  0  0  0  0  0  0  0
  -16.7902   -6.4952    0.0000 C   0  0  0  0  0  3  0  0  0  0  0  0
  -18.2902   -6.4952    0.0000 C   0  0  0  0  0  0  0  0  0  0  0  0
  -19.0402   -5.1962    0.0000 C   0  0  0  0  0  0  0  0  0  0  0  0
  -18.2902   -3.8971    0.0000 N   0  0  0  0  0  2  0  0  0  0  0  0
  -19.0402   -2.5981    0.0000 F   0  0  0  0  0  0  0  0  0  0  0  0
  -20.5402   -5.1962    0.0000 C   0  0  0  0  0  0  0  0  0  0  0  0
  -21.2902   -3.8971    0.0000 C   0  0  0  0  0  0  0  0  0  0  0  0
  -22.7902   -3.8971    0.0000 F   0  0  0  0  0  0  0  0  0  0  0  0
  1  2  1  0
  2  3  1  0
  3  4  1  0
  4  5  1  0
  5  6  1  1
  5  7  1  0
  8  7  1  6
  8  9  1  0
  9 10  1  0
 10 11  1  0
 11 12  1  0
 11 13  1  0
 13 14  1  0
 14 15  1  0
 15 16  1  0
 16 17  1  1
 16 18  1  0
 18 19  1  6
 18 20  1  0
 20 21  1  1
 21 22  1  0
 22 23  1  0
  8 24  1  0
 24 25  1  0
 25 26  1  0
 26 27  1  0
 27 28  1  0
 29 28  1  6
 29 30  1  0
 30 31  1  0
 31 32  1  0
 32 33  1  0
 29 34  1  0
 34 35  1  0
 34 36  1  0
 36 37  1  6
 36 38  1  0
 38 39  1  0
 39 40  1  0
 40 41  1  0
 41 42  1  0
 42 43  1  1
 42 44  1  0
 44 45  1  0
 46 45  1  1
 46 47  1  0
 47 48  1  0
 48 49  1  0
 49 50  1  0
 46 51  1  0
 51 52  1  0
 52 53  1  0
 53 54  1  0
 54 55  1  0
 55 56  1  0
 56 57  1  6
 56 58  1  0
 58 59  1  0
 59 60  1  0
 60 61  1  0
 62 61  1  1
 62 63  1  0
 63 64  1  0
 62 65  1  0
 65 66  1  0
 66 67  1  0
 20 10  1  0
M  RAD  8   3   2   7   2   9   2  22   2  24   2  28   2  33   3  35   3
M  RAD  8  37   2  39   2  41   2  48   2  53   2  58   2  60   2  63   3
M  CHG  3  37   1  50  -1  63   1
M  END
>  <fragInfo>  (1) 
10 11 12 13 14 15 16 17 18 19 20
1 2
3
4
5 6
7
8
9
21
22 23
24
25
26
27
28
29
30
31
32 33
34 35
36 37
38
39
40
41
42 43
44
45
46
47
48
49 50
51
52
53
54
55
56 57
58
59
60
61
62
63 64
65
66 67


>  <torsionInfo>  (1) 
9 10 7 0
20 21 0 8
2 3 1 2
3 4 2 3
4 5 3 4
5 7 4 5
7 8 5 6
8 9 6 7
8 24 6 10
21 22 8 9
24 25 10 11
25 26 11 12
26 27 12 13
27 28 13 14
28 29 14 15
29 30 15 16
29 34 15 19
30 31 16 17
31 32 17 18
34 36 19 20
36 38 20 21
38 39 21 22
39 40 22 23
40 41 23 24
41 42 24 25
42 44 25 26
44 45 26 27
45 46 27 28
46 47 28 29
46 51 28 32
47 48 29 30
48 49 30 31
51 52 32 33
52 53 33 34
53 54 34 35
54 55 35 36
55 56 36 37
56 58 37 38
58 59 38 39
59 60 39 40
60 61 40 41
61 62 41 42
62 63 42 43
62 65 42 44
65 66 44 45


>  <atomInfo>  (1) 
1  0.03885651C 
2  -0.3513313OA
3  0.20894051C 
4  -0.3446066OA
5  0.06161600C 
6  -0.0382517C 
7  -0.0036412C 
8  0.00018178C 
9  -0.0239329C 
10 0.01737433C 
11 0.06033828C 
12 -0.0382907C 
13 -0.3780026OA
14 0.04949934C 
15 -0.0007062C 
16 0.08463832C 
17 -0.3902366OA
18 0.10654209C 
19 -0.3876919OA
20 0.09484370C 
21 -0.3415182OA
22 0.20662039C 
23 -0.3639342OA
24 0.12593375C 
25 -0.2301544OA
26 -0.2360265OA
27 0.08574968C 
28 -0.0034922C 
29 -0.0001711C 
30 0.05038203C 
31 -0.3808210OA
32 0.05011732C 
33 -0.0070573C 
34 0.06608969C 
35 -0.0216618C 
36 0.38564607C 
37 0.45667240N 
38 -0.2793177OA
39 0.21606927C 
40 -0.3388382OA
41 0.11549372C 
42 0.08313504C 
43 -0.3903103OA
44 -0.0195036C 
45 0.00093263C 
46 0.15762437C 
47 -0.3482101OA
48 0.07038029C 
49 -0.1098897C 
50 -0.8525587OA
51 -0.3522641OA
52 0.05519409C 
53 0.01304410C 
54 0.05239954C 
55 -0.3778164OA
56 0.05785278C 
57 -0.0383915C 
58 -0.0096784C 
59 -0.0442519C 
60 -0.0316871C 
61 0.01871151C 
62 0.25120066C 
63 0.32550310N 
64 0.13406818F 
65 0.04402765C 
66 0.09568439C 
67 -0.2508420F 


$$$$
