
     RDKit          3D

 29 29  0  0  0  0  0  0  0  0999 V2000
    6.7320    0.8332    2.0651 C   0  0  0  0  0  0  0  0  0  0  0  0
    6.2671    0.2761    0.7389 C   0  0  0  0  0  0  0  0  0  0  0  0
    5.9735    1.3811   -0.2533 C   0  0  2  0  0  0  0  0  0  0  0  0
    4.8922    2.3176    0.2361 C   0  0  0  0  0  0  0  0  0  0  0  0
    5.6167    0.7890   -1.5510 C   0  0  0  0  0  0  0  0  0  0  0  0
    6.3615    1.0943   -2.5422 O   0  0  0  0  0  0  0  0  0  0  0  0
    4.5333   -0.0636   -1.7334 O   0  0  0  0  0  0  0  0  0  0  0  0
    4.3222   -0.5509   -3.0459 C   0  0  0  0  0  3  0  0  0  0  0  0
    3.1405   -1.4578   -3.1535 C   0  0  0  0  0  0  0  0  0  0  0  0
    2.4350   -1.6501   -1.8301 C   0  0  2  0  0  0  0  0  0  0  0  0
    1.2568   -2.5809   -2.0436 C   0  0  0  0  0  0  0  0  0  0  0  0
    1.9335   -0.3475   -1.3765 C   0  0  0  0  0  0  0  0  0  0  0  0
    0.6736   -0.0391   -1.1870 C   0  0  0  0  0  0  0  0  0  0  0  0
   -0.4320   -0.9436   -1.3973 C   0  0  0  0  0  0  0  0  0  0  0  0
   -1.6681   -0.5397   -1.1789 C   0  0  0  0  0  0  0  0  0  0  0  0
   -2.0278    0.8250   -0.7156 C   0  0  2  0  0  0  0  0  0  0  0  0
   -0.8162    1.7226   -0.6098 C   0  0  0  0  0  0  0  0  0  0  0  0
   -2.7472    0.7253    0.5932 C   0  0  2  0  0  0  0  0  0  0  0  0
   -3.1090    2.1191    1.0562 C   0  0  0  0  0  0  0  0  0  0  0  0
   -4.4184    2.4938    0.4048 C   0  0  0  0  0  0  0  0  0  0  0  0
   -5.2223    1.2469    0.2177 C   0  0  0  0  0  3  0  0  0  0  0  0
   -5.4017    0.4657    1.5156 C   0  0  1  0  0  0  0  0  0  0  0  0
   -6.9186    0.3029    1.6842 C   0  0  0  0  0  2  0  0  0  0  0  0
   -1.9764   -0.0475    1.6373 C   0  0  0  0  0  0  0  0  0  0  0  0
   -2.5602    0.2082    2.8784 O   0  0  0  0  0  0  0  0  0  0  0  0
   -3.3592   -0.8123    3.2674 N   0  0  0  0  0  0  0  0  0  0  0  0
   -4.2194   -1.5125    2.3956 C   0  0  0  0  0  0  0  0  0  0  0  0
   -4.3802   -2.7432    2.5249 O   0  0  0  0  0  0  0  0  0  0  0  0
   -4.8814   -0.8404    1.4028 O   0  0  0  0  0  0  0  0  0  0  0  0
  1  2  1  0
  2  3  1  0
  3  4  1  1
  3  5  1  0
  5  6  2  0
  5  7  1  0
  7  8  1  0
  8  9  1  0
  9 10  1  0
 10 11  1  6
 10 12  1  0
 12 13  2  3
 13 14  1  0
 14 15  2  3
 15 16  1  0
 16 17  1  1
 16 18  1  0
 18 19  1  1
 19 20  1  0
 20 21  1  0
 21 22  1  0
 22 23  1  6
 18 24  1  0
 24 25  1  0
 25 26  1  0
 26 27  1  0
 27 28  2  0
 27 29  1  0
 29 22  1  0
M  RAD  3   8   2  21   2  23   3
M  END
>  <fragInfo>  (1) 
18 19 20 21 22 23 24 25 26 27 28 29
1 2
3 4
5 6
7
8
9
10 11
12 13
14 15
16 17


>  <torsionInfo>  (1) 
16 18 10 0
2 3 1 2
3 5 2 3
5 7 3 4
7 8 4 5
8 9 5 6
9 10 6 7
10 12 7 8
13 14 8 9
15 16 9 10


>  <atomInfo>  (1) 
1  -0.0645670C 
2  -0.0430349C 
3  0.05379706C 
4  -0.0519474C 
5  0.30854598C 
6  -0.2519620OA
7  -0.4581886OA
8  0.13913935C 
9  -0.0059752C 
10 -0.0222187C 
11 -0.0588579C 
12 -0.0815625C 
13 -0.0663110C 
14 -0.0663016C 
15 -0.0813403C 
16 -0.0207509C 
17 -0.0586442C 
18 -0.0091977C 
19 -0.0471793C 
20 -0.0461218C 
21 0.00269085C 
22 0.11060158C 
23 0.00986779C 
24 0.07817729C 
25 -0.2705333OA
26 -0.1995708N 
27 0.43109182C 
28 -0.2221157OA
29 -0.4441163OA


$$$$
