
     RDKit          3D

 59 63  0  0  0  0  0  0  0  0999 V2000
    5.9550    4.9549    3.2966 C   0  0  0  0  0  0  0  0  0  0  0  0
    5.6967    4.2074    4.4887 O   0  0  0  0  0  0  0  0  0  0  0  0
    4.6194    3.3583    4.6201 C   0  0  0  0  0  0  0  0  0  0  0  0
    4.2042    2.7175    3.5226 C   0  0  0  0  0  0  0  0  0  0  0  0
    3.0816    1.8190    3.6106 C   0  0  0  0  0  0  0  0  0  0  0  0
    2.5420    1.1235    2.6540 C   0  0  0  0  0  0  0  0  0  0  0  0
    1.4061    0.2730    2.9584 C   0  0  0  0  0  0  0  0  0  0  0  0
    0.8977   -0.6351    2.1640 C   0  0  0  0  0  0  0  0  0  0  0  0
    1.4484   -0.8917    0.8387 C   0  0  1  0  0  0  0  0  0  0  0  0
    2.7673   -1.6291    0.8776 C   0  0  2  0  0  0  0  0  0  0  0  0
    3.4238   -1.5991   -0.3194 O   0  0  0  0  0  0  0  0  0  0  0  0
    2.6703   -2.9599    1.5415 C   0  0  0  0  0  0  0  0  0  0  0  0
    1.9805   -2.8613    2.8617 C   0  0  0  0  0  0  0  0  0  0  0  0
    0.6875   -3.6318    2.9499 C   0  0  0  0  0  0  0  0  0  0  0  0
   -0.0787   -3.7144    1.6761 C   0  0  0  0  0  0  0  0  0  0  0  0
    0.7905   -3.9844    0.5106 C   0  0  2  0  0  0  0  0  0  0  0  0
    0.8004   -2.9256   -0.5561 C   0  0  0  0  0  0  0  0  0  0  0  0
    0.7982   -5.3146   -0.0423 C   0  0  0  0  0  0  0  0  0  0  0  0
   -0.1623   -6.1548   -0.3030 C   0  0  0  0  0  0  0  0  0  0  0  0
    0.2248   -7.4861   -0.8895 C   0  0  0  0  0  0  0  0  0  0  0  0
   -1.5806   -5.8391   -0.0373 C   0  0  0  0  0  0  0  0  0  0  0  0
   -2.3978   -6.6207   -1.0174 C   0  0  0  0  0  0  0  0  0  0  0  0
   -3.2069   -7.4255   -1.9231 C   0  0  0  0  0  0  0  0  0  0  0  0
   -2.5111   -6.1916   -2.2851 C   0  0  0  0  0  0  0  0  0  0  0  0
   -1.8281   -4.9388   -2.7175 C   0  0  0  0  0  0  0  0  0  0  0  0
   -2.0547   -3.9076   -1.6570 C   0  0  0  0  0  0  0  0  0  0  0  0
   -1.1960   -2.7976   -1.8216 O   0  0  0  0  0  0  0  0  0  0  0  0
   -1.6901   -1.6637   -1.2247 C   0  0  0  0  0  0  0  0  0  0  0  0
   -0.6753   -0.9964   -0.3326 C   0  0  0  0  0  0  0  0  0  0  0  0
    0.4703   -1.5896   -0.0476 C   0  0  0  0  0  0  0  0  0  0  0  0
    3.0625    1.1977    1.2882 C   0  0  0  0  0  0  0  0  0  0  0  0
    4.3518    1.8825    1.1535 C   0  0  0  0  0  0  0  0  0  0  0  0
    4.6835    2.4192   -0.0347 C   0  0  0  0  0  0  0  0  0  0  0  0
    5.9805    3.1242   -0.2242 C   0  0  0  0  0  0  0  0  0  0  0  0
    6.3927    3.0061   -1.6868 C   0  0  0  0  0  0  0  0  0  0  0  0
    5.4908    3.8805   -2.5428 C   0  0  0  0  0  0  0  0  0  0  0  0
    5.1295    3.1661   -3.8314 C   0  0  0  0  0  0  0  0  0  0  0  0
    4.1277    4.0180   -4.5477 C   0  0  0  0  0  0  0  0  0  0  0  0
    2.8385    3.8405   -3.9966 C   0  0  0  0  0  0  0  0  0  0  0  0
    1.8538    3.7233   -3.5737 C   0  0  0  0  0  0  0  0  0  0  0  0
    0.5494    3.5554   -3.0037 C   0  0  0  0  0  0  0  0  0  0  0  0
   -0.2145    2.5430   -3.8372 C   0  0  0  0  0  0  0  0  0  0  0  0
   -0.4570    1.2406   -3.0665 C   0  0  0  0  0  0  0  0  0  0  0  0
    0.7959    1.1007   -1.7354 S   0  0  0  0  0  0  0  0  0  0  0  0
   -0.0725    1.4283   -0.1764 C   0  0  0  0  0  0  0  0  0  0  0  0
   -1.0428    0.3324    0.2040 C   0  0  1  0  0  0  0  0  0  0  0  0
   -2.4071    0.7512   -0.1788 C   0  0  0  0  0  0  0  0  0  0  0  0
   -3.3836    0.9936    0.6404 C   0  0  0  0  0  0  0  0  0  0  0  0
   -4.7400    1.4062    0.3340 C   0  0  2  0  0  0  0  0  0  0  0  0
   -5.8206    0.9349    1.2263 C   0  0  0  0  0  0  0  0  0  0  0  0
   -5.0918    1.6025   -1.0592 C   0  0  0  0  0  0  0  0  0  0  0  0
   -4.9672    0.4726   -2.0159 C   0  0  0  0  0  0  0  0  0  0  0  0
   -5.5341    2.7781   -1.5360 C   0  0  0  0  0  0  0  0  0  0  0  0
   -5.6774    3.9601   -0.5962 C   0  0  0  0  0  0  0  0  0  0  0  0
   -7.0739    4.1319   -0.1756 C   0  0  0  0  0  0  0  0  0  0  0  0
   -7.5512    3.7292    1.2925 S   0  0  0  0  0  0  0  0  0  0  0  0
   -6.2914    3.0974    2.2745 O   0  0  0  0  0  0  0  0  0  0  0  0
   -6.0332    1.7537    2.4162 C   0  0  0  0  0  0  0  0  0  0  0  0
   -5.9817    1.2346    3.5920 N   0  0  0  0  0  0  0  0  0  0  0  0
  1  2  1  0
  2  3  1  0
  3  4  2  3
  4  5  1  0
  5  6  2  3
  6  7  1  0
  7  8  2  3
  9  8  1  1
  9 10  1  0
 10 11  1  6
 10 12  1  0
 12 13  1  0
 13 14  1  0
 14 15  1  0
 16 15  1  6
 16 17  1  0
 16 18  1  0
 18 19  2  3
 19 20  1  0
 19 21  1  0
 21 22  1  0
 22 23  1  0
 22 24  2  0
 24 25  1  0
 25 26  1  0
 26 27  1  0
 27 28  1  0
 28 29  1  0
 29 30  2  3
  6 31  1  0
 31 32  1  0
 32 33  2  3
 33 34  1  0
 34 35  1  0
 35 36  1  0
 36 37  1  0
 37 38  1  0
 38 39  1  0
 39 40  3  0
 40 41  1  0
 41 42  1  0
 42 43  1  0
 43 44  1  0
 44 45  1  0
 46 45  1  6
 46 47  1  0
 47 48  2  3
 48 49  1  0
 49 50  1  6
 49 51  1  0
 51 52  1  0
 51 53  2  3
 53 54  1  0
 54 55  1  0
 55 56  2  3
 56 57  1  0
 57 58  1  0
 58 59  2  0
 30  9  1  0
 30 17  1  0
 24 23  1  0
 46 29  1  0
 58 50  1  0
M  END
>  <fragInfo>  (1) 
5 6 7 8 9 10 11 12 13 14 15 16 17 18 19 20 21 22 23 24 25 26 27 28 29 30 31 32 33 34 35 36 37 38 39 40 41 42 43 44 45 46
1 2
3 4
47 48
49 50 51 52 53 54 55 56 57 58 59


>  <torsionInfo>  (1) 
4 5 2 0
46 47 0 3
2 3 1 2
48 49 3 4


>  <atomInfo>  (1) 
1  0.07660055C 
2  -0.5043676OA
3  0.08242009C 
4  -0.0272690C 
5  -0.0556938C 
6  -0.0444249C 
7  -0.0620337C 
8  -0.0744920C 
9  0.02446785C 
10 0.06398340C 
11 -0.3921784OA
12 -0.0261021C 
13 -0.0507918C 
14 -0.0526386C 
15 -0.0466430C 
16 -0.0193207C 
17 -0.0246248C 
18 -0.0818501C 
19 -0.0729513C 
20 -0.0436023C 
21 -0.0105111C 
22 -0.0625004C 
23 -0.0098653C 
24 -0.0640064C 
25 -0.0077583C 
26 0.05073623C 
27 -0.3767505OA
28 0.06853383C 
29 -0.0370685C 
30 -0.0580267C 
31 -0.0097546C 
32 -0.0841366C 
33 -0.0882054C 
34 -0.0350612C 
35 -0.0497915C 
36 -0.0521036C 
37 -0.0422480C 
38 0.00886419C 
39 -0.1033224C 
40 -0.1032918C 
41 0.00964920C 
42 -0.0331142C 
43 -0.0058133C 
44 -0.1610193SA
45 0.00340724C 
46 0.00933545C 
47 -0.0798048C 
48 -0.0802102C 
49 0.00612171C 
50 0.03437563C 
51 -0.0695850C 
52 -0.0433167C 
53 -0.0806055C 
54 -0.0082669C 
55 -0.0233273C 
56 -0.0211191S 
57 -0.4225544OA
58 0.19574866C 
59 -0.2707930NA


$$$$
