
     RDKit          2D

104107  0  0  0  0  0  0  0  0999 V2000
  -12.2082   22.4173    0.0000 O   0  0  0  0  0  0  0  0  0  0  0  0
  -10.7816   21.9538    0.0000 C   0  0  0  0  0  0  0  0  0  0  0  0
   -9.6669   22.9575    0.0000 N   0  0  0  0  0  0  0  0  0  0  0  0
   -9.9787   24.4247    0.0000 C   0  0  0  0  0  0  0  0  0  0  0  0
   -8.8640   25.4284    0.0000 C   0  0  0  0  0  0  0  0  0  0  0  0
   -9.1759   26.8956    0.0000 C   0  0  0  0  0  0  0  0  0  0  0  0
   -8.0612   27.8993    0.0000 C   0  0  0  0  0  0  0  0  0  0  0  0
   -8.3730   29.3665    0.0000 C   0  0  0  0  0  0  0  0  0  0  0  0
   -7.2583   30.3702    0.0000 C   0  0  0  0  0  0  0  0  0  0  0  0
   -7.5702   31.8375    0.0000 N   0  0  0  0  0  0  0  0  0  0  0  0
   -6.4555   32.8412    0.0000 C   0  0  0  0  0  0  0  0  0  0  0  0
   -4.9575   32.7627    0.0000 N   0  0  0  0  0  0  0  0  0  0  0  0
   -4.8790   34.2606    0.0000 C   0  0  0  0  0  0  0  0  0  0  0  0
   -6.3770   34.3391    0.0000 N   0  0  0  0  0  0  0  0  0  0  0  0
  -10.4697   20.4866    0.0000 C   0  0  0  0  0  0  0  0  0  0  0  0
  -11.5844   19.4829    0.0000 C   0  0  0  0  0  0  0  0  0  0  0  0
  -11.2726   18.0157    0.0000 C   0  0  0  0  0  0  0  0  0  0  0  0
  -12.3873   17.0120    0.0000 C   0  0  0  0  0  0  0  0  0  0  0  0
  -12.0754   15.5447    0.0000 C   0  0  0  0  0  0  0  0  0  0  0  0
  -13.1901   14.5410    0.0000 C   0  0  0  0  0  0  0  0  0  0  0  0
  -12.8783   13.0738    0.0000 C   0  0  0  0  0  0  0  0  0  0  0  0
  -13.9930   12.0701    0.0000 C   0  0  0  0  0  0  0  0  0  0  0  0
  -13.6811   10.6029    0.0000 C   0  0  0  0  0  0  0  0  0  0  0  0
  -14.7958    9.5992    0.0000 C   0  0  0  0  0  0  0  0  0  0  0  0
  -14.4840    8.1320    0.0000 O   0  0  0  0  0  0  0  0  0  0  0  0
  -15.5987    7.1283    0.0000 C   0  0  0  0  0  0  0  0  0  0  0  0
  -16.8253    7.9917    0.0000 C   0  0  0  0  0  0  0  0  0  0  0  0
  -18.3050    8.2374    0.0000 S   0  0  0  0  0  0  0  0  0  0  0  0
  -19.7448    7.8168    0.0000 O   0  0  0  0  0  0  0  0  0  0  0  0
  -20.8595    6.8131    0.0000 C   0  0  0  0  0  0  0  0  0  0  0  0
  -21.4284    5.4251    0.0000 N   0  0  0  0  0  0  0  0  0  0  0  0
  -21.3386    3.9278    0.0000 C   0  0  0  0  0  0  0  0  0  0  0  0
  -20.6082    2.6177    0.0000 C   0  0  0  0  0  0  0  0  0  0  0  0
  -19.3816    1.7543    0.0000 C   0  0  0  0  0  0  0  0  0  0  0  0
  -17.9019    1.5086    0.0000 C   0  0  0  0  0  0  0  0  0  0  0  0
  -16.4620    1.9292    0.0000 N   0  0  0  0  0  0  0  0  0  0  0  0
  -15.3473    2.9329    0.0000 N   0  0  0  0  0  0  0  0  0  0  0  0
  -14.7785    4.3209    0.0000 C   0  0  0  0  0  0  0  0  0  0  0  0
  -14.8682    5.8182    0.0000 C   0  0  0  0  0  0  0  0  0  0  0  0
  -13.4284    6.2388    0.0000 N   0  0  0  0  0  0  0  0  0  0  0  0
  -12.3442    5.2022    0.0000 C   0  0  0  0  0  0  0  0  0  0  0  0
  -10.9044    5.6229    0.0000 C   0  0  0  0  0  0  0  0  0  0  0  0
   -9.8202    4.5863    0.0000 C   0  0  0  0  0  0  0  0  0  0  0  0
   -8.3804    5.0069    0.0000 C   0  0  0  0  0  0  0  0  0  0  0  0
   -7.2962    3.9703    0.0000 C   0  0  0  0  0  0  0  0  0  0  0  0
   -5.8564    4.3910    0.0000 N   0  0  0  0  0  0  0  0  0  0  0  0
   -4.7722    3.3544    0.0000 C   0  0  0  0  0  0  0  0  0  0  0  0
   -3.3324    3.7750    0.0000 O   0  0  0  0  0  0  0  0  0  0  0  0
   -2.0919    1.2116    0.0000 C   0  0  0  0  0  0  0  0  0  0  0  0
   -1.0596    1.8970    0.0000 C   0  0  0  0  0  0  0  0  0  0  0  0
   -0.2876    1.2709    0.0000 C   0  0  0  0  0  0  0  0  0  0  0  0
    0.9827    1.4588    0.0000 N   0  0  0  0  0  0  0  0  0  0  0  0
    1.0341    0.5740    0.0000 C   0  0  0  0  0  0  0  0  0  0  0  0
    2.0680    0.0549    0.0000 C   0  0  0  0  0  0  0  0  0  0  0  0
    1.8249   -0.7390    0.0000 N   0  0  0  0  0  4  0  0  0  0  0  0
    3.0367   -1.4624    0.0000 C   0  0  0  0  0  0  0  0  0  0  0  0
    2.8929   -0.6637    0.0000 C   0  0  0  0  0  0  0  0  0  0  0  0
    1.7753    0.8550    0.0000 C   0  0  0  0  0  0  0  0  0  0  0  0
    1.2286    1.5406    0.0000 N   0  0  0  0  0  0  0  0  0  0  0  0
    0.4385    1.9211    0.0000 C   0  0  0  0  0  0  0  0  0  0  0  0
   -0.4385    1.9211    0.0000 C   0  0  0  0  0  0  0  0  0  0  0  0
   -2.3226    1.8479    0.0000 C   0  0  0  0  0  0  0  0  0  0  0  0
   -3.0367    1.4624    0.0000 C   0  0  0  0  0  0  0  0  0  0  0  0
   -3.3705    0.0000    0.0000 N   0  0  0  0  0  0  0  0  0  0  0  0
   -3.0367   -1.4624    0.0000 C   0  0  0  0  0  0  0  0  0  0  0  0
   -2.1015   -2.6351    0.0000 C   0  0  0  0  0  0  0  0  0  0  0  0
   -0.7500   -3.2860    0.0000 C   0  0  0  0  0  0  0  0  0  0  0  0
    0.7500   -3.2860    0.0000 C   0  0  0  0  0  0  0  0  0  0  0  0
    2.1015   -2.6351    0.0000 C   0  0  0  0  0  0  0  0  0  0  0  0
    5.4203   -0.4400    0.0000 O   0  0  0  0  0  0  0  0  0  0  0  0
    5.9891   -1.8280    0.0000 C   0  0  0  0  0  0  0  0  0  0  0  0
    7.4755   -2.0293    0.0000 C   0  0  0  0  0  0  0  0  0  0  0  0
    8.0444   -3.4173    0.0000 C   0  0  0  0  0  0  0  0  0  0  0  0
    9.5308   -3.6186    0.0000 N   0  0  0  0  0  0  0  0  0  0  0  0
   10.0996   -5.0066    0.0000 C   0  0  0  0  0  0  0  0  0  0  0  0
   11.5860   -5.2079    0.0000 O   0  0  0  0  0  0  0  0  0  0  0  0
   12.1549   -6.5959    0.0000 C   0  0  0  0  0  0  0  0  0  0  0  0
   13.6413   -6.7973    0.0000 N   0  0  0  0  0  3  0  0  0  0  0  0
   14.5589   -5.6106    0.0000 N   0  0  0  0  0  0  0  0  0  0  0  0
   16.0453   -5.8120    0.0000 C   0  0  0  0  0  0  0  0  0  0  0  0
   16.9629   -4.6254    0.0000 C   0  0  0  0  0  0  0  0  0  0  0  0
   18.4493   -4.8267    0.0000 C   0  0  0  0  0  0  0  0  0  0  0  0
   19.3669   -3.6401    0.0000 C   0  0  0  0  0  0  0  0  0  0  0  0
   20.8533   -3.8415    0.0000 C   0  0  0  0  0  0  0  0  0  0  0  0
   21.7709   -2.6549    0.0000 C   0  0  0  0  0  0  0  0  0  0  0  0
   23.2574   -2.8562    0.0000 C   0  0  0  0  0  0  0  0  0  0  0  0
   24.1749   -1.6696    0.0000 N   0  0  0  0  0  0  0  0  0  0  0  0
   25.6614   -1.8710    0.0000 C   0  0  0  0  0  0  0  0  0  0  0  0
   26.5789   -0.6844    0.0000 C   0  0  0  0  0  0  0  0  0  0  0  0
   14.2101   -8.1852    0.0000 C   0  0  0  0  0  0  0  0  0  0  0  0
   15.6966   -8.3866    0.0000 C   0  0  0  0  0  0  0  0  0  0  0  0
   16.2654   -9.7745    0.0000 N   0  0  0  0  0  0  0  0  0  0  0  0
   17.7518   -9.9759    0.0000 C   0  0  0  0  0  0  0  0  0  0  0  0
   18.3207  -11.3638    0.0000 C   0  0  0  0  0  0  0  0  0  0  0  0
   19.8071  -11.5652    0.0000 C   0  0  0  0  0  0  0  0  0  0  0  0
   20.3759  -12.9531    0.0000 N   0  0  0  0  0  0  0  0  0  0  0  0
   21.8624  -13.1545    0.0000 C   0  0  0  0  0  0  0  0  0  0  0  0
   22.4312  -14.5424    0.0000 C   0  0  0  0  0  0  0  0  0  0  0  0
   23.9176  -14.7438    0.0000 C   0  0  0  0  0  0  0  0  0  0  0  0
   24.4865  -16.1317    0.0000 C   0  0  0  0  0  0  0  0  0  0  0  0
   25.9729  -16.3331    0.0000 N   0  0  0  0  0  3  0  0  0  0  0  0
   26.5417  -17.7210    0.0000 C   0  0  0  0  0  0  0  0  0  0  0  0
   28.0281  -17.9224    0.0000 N   0  0  0  0  0  3  0  0  0  0  0  0
   28.5970  -19.3104    0.0000 C   0  0  0  0  0  0  0  0  0  0  0  0
  1  2  2  0
  2  3  1  0
  3  4  1  0
  4  5  1  0
  5  6  1  0
  6  7  2  3
  7  8  1  0
  8  9  2  3
  9 10  1  0
 10 11  2  3
 11 12  1  0
 12 13  1  0
 13 14  1  0
  2 15  1  0
 15 16  1  0
 16 17  2  3
 17 18  1  0
 18 19  2  3
 19 20  1  0
 20 21  2  3
 21 22  1  0
 22 23  2  3
 23 24  1  0
 24 25  1  0
 25 26  1  0
 26 27  2  3
 27 28  1  0
 28 29  1  0
 29 30  1  0
 30 31  1  0
 31 32  1  0
 32 33  2  3
 33 34  1  0
 34 35  2  3
 35 36  1  0
 36 37  1  0
 37 38  1  0
 38 39  2  3
 39 40  1  0
 40 41  1  0
 41 42  1  0
 42 43  2  3
 43 44  1  0
 44 45  2  3
 45 46  1  0
 46 47  1  0
 47 48  1  0
 48 49  1  0
 49 50  1  0
 50 51  2  3
 51 52  1  0
 52 53  1  0
 53 54  2  3
 54 55  1  0
 55 56  2  3
 56 57  1  0
 57 58  2  3
 58 59  1  0
 59 60  2  3
 60 61  1  0
 61 62  2  3
 62 63  1  0
 63 64  1  0
 64 65  1  0
 65 66  1  0
 66 67  2  3
 67 68  1  0
 68 69  2  3
 55 70  1  0
 70 71  1  0
 71 72  1  0
 72 73  2  3
 73 74  1  0
 74 75  1  0
 75 76  1  0
 76 77  1  0
 77 78  1  0
 78 79  1  0
 79 80  1  0
 80 81  2  3
 81 82  1  0
 82 83  2  3
 83 84  1  0
 84 85  2  3
 85 86  1  0
 86 87  1  0
 87 88  1  0
 88 89  2  0
 78 90  1  0
 90 91  2  3
 91 92  1  0
 92 93  2  3
 93 94  1  0
 94 95  2  3
 95 96  1  0
 96 97  1  0
 97 98  2  3
 98 99  1  0
 99100  2  3
100101  1  0
101102  2  3
102103  1  0
103104  2  0
 14 11  1  0
 39 26  1  0
 63 49  1  0
 69 56  1  0
M  CHG  4  55   1  78   1 101   1 103   1
M  RAD  3  78   2 101   2 103   2
M  END
>  <fragInfo>  (1) 
49 50 51 52 53 54 55 56 57 58 59 60 61 62 63 64 65 66 67 68 69
1 2 3
4
5
6 7
8 9
10 11 12 13 14
15
16 17
18 19
20 21
22 23
24
25
26 27 28 29 30 31 32 33 34 35 36 37 38 39
40
41
42 43
44 45
46
47
48
70
71
72 73
74
75
76
77
78
79
80 81
82 83
84 85
86
87
88 89
90 91
92 93
94 95
96
97 98
99 100
101 102
103 104


>  <torsionInfo>  (1) 
48 49 21 0
55 70 0 22
2 15 1 7
3 4 1 2
4 5 2 3
5 6 3 4
7 8 4 5
9 10 5 6
15 16 7 8
17 18 8 9
19 20 9 10
21 22 10 11
23 24 11 12
24 25 12 13
25 26 13 14
39 40 14 15
40 41 15 16
41 42 16 17
43 44 17 18
45 46 18 19
46 47 19 20
47 48 20 21
70 71 22 23
71 72 23 24
73 74 24 25
74 75 25 26
75 76 26 27
76 77 27 28
77 78 28 29
78 79 29 30
78 90 29 37
79 80 30 31
81 82 31 32
83 84 32 33
85 86 33 34
86 87 34 35
87 88 35 36
91 92 37 38
93 94 38 39
95 96 39 40
96 97 40 41
98 99 41 42
100 101 42 43
102 103 43 44


>  <atomInfo>  (1) 
1  -0.2747798OA
2  0.22331919C 
3  -0.3555251N 
4  0.02081704C 
5  -0.0171909C 
6  -0.0827323C 
7  -0.0646772C 
8  -0.0440416C 
9  0.03073158C 
10 -0.2236063NA
11 0.19820006C 
12 -0.3386534N 
13 0.09014353C 
14 -0.3386534N 
15 0.04488658C 
16 -0.0752705C 
17 -0.0657641C 
18 -0.0625709C 
19 -0.0622796C 
20 -0.0622778C 
21 -0.0624605C 
22 -0.0629158C 
23 -0.0473524C 
24 0.10684016C 
25 -0.4866672OA
26 0.15251487C 
27 0.04342849C 
28 0.02612753SA
29 -0.2896247OA
30 0.13037047C 
31 -0.3677647N 
32 -0.0016815C 
33 -0.0449318C 
34 -0.0431533C 
35 0.01778050C 
36 -0.3086834N 
37 -0.3065250N 
38 0.04479198C 
39 0.09548768C 
40 -0.3773158N 
41 0.03351506C 
42 -0.0654527C 
43 -0.0630914C 
44 -0.0466880C 
45 -0.0017853C 
46 -0.3687102N 
47 0.11647356C 
48 -0.3520305OA
49 0.09842765C 
50 -0.0378555C 
51 -0.0007091C 
52 -0.3628426N 
53 0.07047546C 
54 0.23864810C 
55 0.01401995N 
56 0.25861597C 
57 0.03296688C 
58 0.03351738C 
59 -0.2644881NA
60 0.02647555C 
61 -0.0462192C 
62 -0.0631884C 
63 0.05604040C 
64 -0.3044710NA
65 0.01440920C 
66 -0.0707093C 
67 -0.0647578C 
68 -0.0557559C 
69 0.01470746C 
70 -0.2665165OA
71 0.17970613C 
72 -0.0243891C 
73 -0.0021549C 
74 -0.3686996N 
75 0.12203510C 
76 -0.3046064OA
77 0.26045373C 
78 0.00199498N 
79 -0.1872907N 
80 0.05521980C 
81 -0.0410209C 
82 -0.0606393C 
83 -0.0624631C 
84 -0.0645261C 
85 -0.0655298C 
86 0.03276600C 
87 -0.3878831N 
88 -0.0106905C 
89 -0.0832446C 
90 0.19408233C 
91 0.08783240C 
92 -0.2588409NA
93 0.02842588C 
94 -0.0277933C 
95 0.00197485C 
96 -0.3675788N 
97 0.00066988C 
98 -0.0399740C 
99 0.01075778C 
1000.24964363C 
1010.13056910N 
1020.53387955C 
1030.12234078N 
1040.21450864C 


$$$$
