
     RDKit          3D

 36 38  0  0  0  0  0  0  0  0999 V2000
   -1.5951    2.2013   -1.0571 C   0  0  0  0  0  0  0  0  0  0  0  0
   -1.6349    1.7074    0.3277 C   0  0  1  0  0  0  0  0  0  0  0  0
   -2.2544    2.8304    1.2100 C   0  0  0  0  0  0  0  0  0  0  0  0
   -3.4312    3.3383    0.3971 C   0  0  2  0  0  0  0  0  0  0  0  0
   -4.1069    4.2494    1.2113 O   0  0  0  0  0  0  0  0  0  0  0  0
   -4.3654    2.2781   -0.0255 C   0  0  2  0  0  0  0  0  0  0  0  0
   -5.4509    2.1076    0.8220 O   0  0  0  0  0  0  0  0  0  0  0  0
   -3.7779    0.9468   -0.3819 C   0  0  1  0  0  0  0  0  0  0  0  0
   -3.3768    0.9214   -1.7317 O   0  0  0  0  0  0  0  0  0  0  0  0
   -2.5827    0.5548    0.5274 C   0  0  1  0  0  0  0  0  0  0  0  0
   -2.1639   -0.7317    0.0998 N   0  0  0  0  0  0  0  0  0  0  0  0
   -2.1528   -1.0475   -1.2650 C   0  0  0  0  0  3  0  0  0  0  0  0
   -3.3682   -2.0289   -1.4491 C   0  0  2  0  0  0  0  0  0  0  0  0
   -4.2575   -1.8865   -0.2510 C   0  0  0  0  0  0  0  0  0  0  0  0
   -5.4496   -2.0539   -0.2846 O   0  0  0  0  0  0  0  0  0  0  0  0
   -2.7361   -3.3060   -1.2619 O   0  0  0  0  0  0  0  0  0  0  0  0
   -2.7379   -3.5347    0.1136 C   0  0  1  0  0  0  0  0  0  0  0  0
   -2.6861   -4.9404    0.2942 O   0  0  0  0  0  0  0  0  0  0  0  0
   -1.5161   -2.9978    0.7763 C   0  0  2  0  0  0  0  0  0  0  0  0
   -1.3014   -3.6265    1.9898 O   0  0  0  0  0  0  0  0  0  0  0  0
   -1.4910   -1.5047    1.0219 C   0  0  1  0  0  0  0  0  0  0  0  0
   -0.0641   -1.2315    1.1137 O   0  0  0  0  0  0  0  0  0  0  0  0
    0.3416   -1.4956   -0.2839 C   0  0  0  0  0  0  0  0  0  0  0  0
    0.6933   -0.2156   -0.9091 C   0  0  0  0  0  0  0  0  0  0  0  0
    2.1090    0.2388   -0.9730 C   0  0  2  0  0  0  0  0  0  0  0  0
    2.7956   -0.6199   -1.8492 O   0  0  0  0  0  0  0  0  0  0  0  0
    2.8631   -0.2397    0.3244 O   0  0  0  0  0  0  0  0  0  0  0  0
    4.0707    0.1030   -0.2529 O   0  0  0  0  0  0  0  0  0  0  0  0
    4.2254    1.4642   -0.1134 C   0  0  2  0  0  0  0  0  0  0  0  0
    4.5208    2.0473   -1.3859 O   0  0  0  0  0  0  0  0  0  0  0  0
    5.7721    1.4333    0.4392 C   0  0  2  0  0  0  0  0  0  0  0  0
    6.4055    2.5395   -0.1362 O   0  0  0  0  0  0  0  0  0  0  0  0
    7.6996    2.2248   -0.2836 N   0  0  0  0  0  0  0  0  0  0  0  0
    7.8826    0.8027   -0.2956 C   0  0  0  0  0  0  0  0  0  0  0  0
    6.4666    0.2466   -0.0314 C   0  0  1  0  0  0  0  0  0  0  0  0
    6.6547   -0.7748    1.1434 C   0  0  0  0  0  2  0  0  0  0  0  0
  2  1  1  6
  2  3  1  0
  3  4  1  0
  4  5  1  1
  4  6  1  0
  6  7  1  1
  6  8  1  0
  8  9  1  6
  8 10  1  0
 10 11  1  6
 11 12  1  0
 12 13  1  0
 13 14  1  1
 14 15  2  0
 13 16  1  0
 16 17  1  0
 17 18  1  6
 17 19  1  0
 19 20  1  1
 19 21  1  0
 21 22  1  6
 22 23  1  0
 23 24  1  0
 24 25  1  0
 25 26  1  6
 25 27  1  0
 27 28  1  0
 28 29  1  0
 29 30  1  6
 29 31  1  0
 31 32  1  6
 32 33  1  0
 33 34  1  0
 34 35  1  0
 35 36  1  1
 10  2  1  0
 21 11  1  0
 35 31  1  0
M  RAD  2  12   2  36   3
M  END
>  <fragInfo>  (1) 
1 2 3 4 5 6 7 8 9 10
11 12 13 16 17 18 19 20 21
14 15
22
23
24
25 26
27
28
29 30
31 32 33 34 35 36


>  <torsionInfo>  (1) 
10 11 0 1
13 14 1 2
21 22 1 3
22 23 3 4
23 24 4 5
24 25 5 6
25 27 6 7
27 28 7 8
28 29 8 9
29 31 9 10


>  <atomInfo>  (1) 
1  -0.0608136C 
2  -0.0233046C 
3  -0.0201658C 
4  0.08280107C 
5  -0.3903155OA
6  0.10723531C 
7  -0.3876532OA
8  0.09825114C 
9  -0.3886687OA
10 0.04385391C 
11 -0.2622543NA
12 0.06433982C 
13 0.13311913C 
14 0.15007555C 
15 -0.3003931OA
16 -0.3374920OA
17 0.18524340C 
18 -0.3656816OA
19 0.14418704C 
20 -0.3836251OA
21 0.14208634C 
22 -0.3599357OA
23 0.05375716C 
24 0.02480050C 
25 0.19053012C 
26 -0.3655265OA
27 -0.2018391OA
28 -0.1990322OA
29 0.21727597C 
30 -0.3635709OA
31 0.13690181C 
32 -0.2926626OA
33 -0.2016220NA
34 0.02684620C 
35 0.01044111C 
36 -0.0274323C 


$$$$
