
     RDKit          3D

 41 43  0  0  0  0  0  0  0  0999 V2000
   -2.5154    0.8545    2.0825 C   0  0  0  0  0  0  0  0  0  0  0  0
   -3.9290    1.2562    1.7970 C   0  0  1  0  0  0  0  0  0  0  0  0
   -4.0740    2.6656    1.2987 C   0  0  0  0  0  0  0  0  0  0  0  0
   -4.5851    2.7537   -0.1099 C   0  0  2  0  0  0  0  0  0  0  0  0
   -4.9661    4.0871   -0.3305 O   0  0  0  0  0  0  0  0  0  0  0  0
   -5.7955    1.9030   -0.3674 C   0  0  2  0  0  0  0  0  0  0  0  0
   -6.9252    2.6256   -0.6994 O   0  0  0  0  0  0  0  0  0  0  0  0
   -6.0653    0.9000    0.7195 C   0  0  1  0  0  0  0  0  0  0  0  0
   -7.0034   -0.0154    0.2826 O   0  0  0  0  0  0  0  0  0  0  0  0
   -4.7268    0.2500    1.0449 C   0  0  1  0  0  0  0  0  0  0  0  0
   -4.0769   -0.0156   -0.2427 N   0  0  0  0  0  0  0  0  0  0  0  0
   -4.8713   -0.7881   -1.1218 C   0  0  0  0  0  3  0  0  0  0  0  0
   -5.0733   -2.1776   -0.6425 C   0  0  1  0  0  0  0  0  0  0  0  0
   -4.4074   -3.2183   -1.4504 C   0  0  0  0  0  0  0  0  0  0  0  0
   -4.2418   -4.3182   -0.9944 O   0  0  0  0  0  0  0  0  0  0  0  0
   -5.0285   -2.3650    0.7173 O   0  0  0  0  0  0  0  0  0  0  0  0
   -3.6907   -2.3624    1.1673 C   0  0  1  0  0  0  0  0  0  0  0  0
   -3.3105   -3.5908    1.6879 O   0  0  0  0  0  0  0  0  0  0  0  0
   -2.8093   -1.9852   -0.0287 C   0  0  2  0  0  0  0  0  0  0  0  0
   -1.6019   -2.6188    0.1720 O   0  0  0  0  0  0  0  0  0  0  0  0
   -2.7060   -0.4499   -0.0200 C   0  0  1  0  0  0  0  0  0  0  0  0
   -1.9046    0.0182   -1.0755 O   0  0  0  0  0  0  0  0  0  0  0  0
   -0.6401    0.0531   -0.8153 O   0  0  0  0  0  0  0  0  0  0  0  0
    0.0318   -1.0381   -1.1720 O   0  0  0  0  0  0  0  0  0  0  0  0
    1.2100   -0.8428   -0.3592 C   0  0  2  0  0  0  0  0  0  0  0  0
    0.9126   -1.0378    0.9251 O   0  0  0  0  0  0  0  0  0  0  0  0
    1.8205    0.2737   -0.8338 O   0  0  0  0  0  0  0  0  0  0  0  0
    1.7449    1.0996    0.2360 O   0  0  0  0  0  0  0  0  0  0  0  0
    2.4364    0.6905    1.2493 C   0  0  0  0  0  3  0  0  0  0  0  0
    3.7988    0.5880    0.9864 O   0  0  0  0  0  0  0  0  0  0  0  0
    4.0450   -0.6915    0.4118 C   0  0  2  0  0  0  0  0  0  0  0  0
    4.7927   -1.3206    1.4231 F   0  0  0  0  0  0  0  0  0  0  0  0
    5.1369   -0.4125   -0.6548 C   0  0  0  0  0  3  0  0  0  0  0  0
    6.1409    0.5902   -0.0484 C   0  0  1  0  0  0  0  0  0  0  0  0
    7.4261    0.1121    0.4083 C   0  0  0  0  0  3  0  0  0  0  0  0
    7.2277    1.0026   -0.9222 C   0  0  2  0  0  0  0  0  0  0  0  0
    8.0511    2.2459   -0.9174 C   0  0  0  0  0  0  0  0  0  0  0  0
    8.6754    2.4828    0.3157 O   0  0  0  0  0  0  0  0  0  0  0  0
    9.4961    1.3414    0.5057 C   0  0  0  0  0  3  0  0  0  0  0  0
   10.3676    0.8894   -0.5398 C   0  0  0  0  0  0  0  0  0  0  0  0
   11.6334    0.5658   -0.1458 C   0  0  0  0  0  3  0  0  0  0  0  0
  2  1  1  6
  2  3  1  0
  3  4  1  0
  4  5  1  1
  4  6  1  0
  6  7  1  1
  6  8  1  0
  8  9  1  6
  8 10  1  0
 10 11  1  6
 11 12  1  0
 12 13  1  0
 13 14  1  6
 14 15  2  0
 13 16  1  0
 16 17  1  0
 17 18  1  6
 17 19  1  0
 19 20  1  1
 19 21  1  0
 21 22  1  6
 22 23  1  0
 23 24  1  0
 24 25  1  0
 25 26  1  1
 25 27  1  0
 27 28  1  0
 28 29  1  0
 29 30  1  0
 30 31  1  0
 31 32  1  1
 31 33  1  0
 34 33  1  6
 34 35  1  0
 34 36  1  0
 36 37  1  1
 37 38  1  0
 38 39  1  0
 39 40  1  0
 40 41  2  0
 10  2  1  0
 21 11  1  0
 36 35  1  0
M  RAD  6  12   2  29   2  33   2  35   2  39   2  41   2
M  END
>  <fragInfo>  (1) 
1 2 3 4 5 6 7 8 9 10
11 12 13 16 17 18 19 20 21
14 15
22
23
24
25 26
27
28
29
30
31 32
33
34 35 36
37
38
39
40 41


>  <torsionInfo>  (1) 
10 11 0 1
13 14 1 2
21 22 1 3
22 23 3 4
23 24 4 5
24 25 5 6
25 27 6 7
27 28 7 8
28 29 8 9
29 30 9 10
30 31 10 11
31 33 11 12
33 34 12 13
36 37 13 14
37 38 14 15
38 39 15 16
39 40 16 17


>  <atomInfo>  (1) 
1  -0.0608136C 
2  -0.0233027C 
3  -0.0201658C 
4  0.08280107C 
5  -0.3903155OA
6  0.10723532C 
7  -0.3876532OA
8  0.09825308C 
9  -0.3886687OA
10 0.04396626C 
11 -0.2594588NA
12 0.06445407C 
13 0.13312113C 
14 0.15007556C 
15 -0.3003931OA
16 -0.3374895OA
17 0.18537603C 
18 -0.3656799OA
19 0.14753143C 
20 -0.3834893OA
21 0.18076309C 
22 -0.1835657OA
23 -0.0610881OA
24 -0.1414742OA
25 0.32964615C 
26 -0.3420892OA
27 -0.1690114OA
28 -0.1934314OA
29 0.24816518C 
30 -0.3105311OA
31 0.20501958C 
32 -0.2157361F 
33 0.02677984C 
34 -0.0241463C 
35 -0.0289267C 
36 -0.0107972C 
37 0.05091665C 
38 -0.3707669OA
39 0.10562861C 
40 -0.0529962C 
41 -0.0638200C 


$$$$
