
     RDKit          3D

 27 29  0  0  0  0  0  0  0  0999 V2000
   -5.9743   -1.2915   -0.1967 N   0  0  0  0  0  0  0  0  0  0  0  0
   -4.9146   -0.3349   -0.0854 C   0  0  0  0  0  0  0  0  0  0  0  0
   -4.9293    0.6348    0.7401 N   0  0  0  0  0  0  0  0  0  0  0  0
   -3.9426    1.6193    0.9222 C   0  0  1  0  0  0  0  0  0  0  0  0
   -3.5694    1.7290    2.6732 Cl  0  0  0  0  0  0  0  0  0  0  0  0
   -2.7334    1.5693    0.0968 C   0  0  0  0  0  0  0  0  0  0  0  0
   -2.7084    0.4633   -0.8545 C   0  0  0  0  0  0  0  0  0  0  0  0
   -3.7383   -0.4488   -0.9497 C   0  0  0  0  0  0  0  0  0  0  0  0
   -3.3802   -1.3120   -1.9132 N   0  0  0  0  0  0  0  0  0  0  0  0
   -2.2010   -0.9795   -2.4052 N   0  0  0  0  0  0  0  0  0  0  0  0
   -1.7329    0.1122   -1.7903 C   0  0  0  0  0  0  0  0  0  0  0  0
   -0.4469    0.7858   -2.0691 C   0  0  0  0  0  3  0  0  0  0  0  0
    0.5253    0.6087   -1.1324 O   0  0  0  0  0  0  0  0  0  0  0  0
    0.1225    0.0183    0.0570 C   0  0  2  0  0  0  0  0  0  0  0  0
    1.2975   -0.1137    1.0059 C   0  0  0  0  0  0  0  0  0  0  0  0
    2.6127   -1.1325    0.2995 S   0  0  0  0  0  0  0  0  0  0  0  0
    3.3879   -0.3950   -1.1282 C   0  0  0  0  0  0  0  0  0  0  0  0
    4.1576    0.8472   -0.8561 C   0  0  0  0  0  0  0  0  0  0  0  0
    5.2883    0.6660    0.1161 C   0  0  2  0  0  0  0  0  0  0  0  0
    4.9017    0.2094    1.4095 N   0  0  0  0  0  0  0  0  0  0  0  0
    6.2026    1.8224    0.1077 C   0  0  0  0  0  0  0  0  0  0  0  0
    6.6030    2.3499    1.1723 O   0  0  0  0  0  0  0  0  0  0  0  0
    6.6312    2.3407   -1.1285 N   0  0  0  0  0  0  0  0  0  0  0  0
   -0.5454   -1.3202   -0.1798 C   0  0  1  0  0  0  0  0  0  0  0  0
    0.1820   -2.3246   -0.8060 O   0  0  0  0  0  0  0  0  0  0  0  0
    0.0600   -2.4900    0.5690 C   0  0  2  0  0  0  0  0  0  0  0  0
   -1.1556   -3.6337    1.1850 Cl  0  0  0  0  0  0  0  0  0  0  0  0
  1  2  1  0
  2  3  2  0
  3  4  1  0
  4  5  1  1
  4  6  1  0
  6  7  1  0
  7  8  2  0
  8  9  1  0
  9 10  1  0
 10 11  2  0
 11 12  1  0
 12 13  1  0
 13 14  1  0
 14 15  1  1
 15 16  1  0
 16 17  1  0
 17 18  1  0
 18 19  1  0
 19 20  1  1
 19 21  1  0
 21 22  2  0
 21 23  1  0
 14 24  1  0
 24 25  1  6
 24 26  1  0
 26 27  1  6
  8  2  1  0
 11  7  1  0
 26 25  1  0
M  RAD  1  12   2
M  END
>  <fragInfo>  (1) 
1 2 3 4 5 6 7 8 9 10 11
12
13
14
15
16
17
18
19 20
21 22 23
24 25 26 27


>  <torsionInfo>  (1) 
11 12 0 1
12 13 1 2
13 14 2 3
14 15 3 4
14 24 3 10
15 16 4 5
16 17 5 6
17 18 6 7
18 19 7 8
19 21 8 9


>  <atomInfo>  (1) 
1  -0.3821668N 
2  0.14533901C 
3  -0.2469017NA
4  0.12991178C 
5  -0.0967052Cl
6  0.01309175C 
7  0.01037529A 
8  0.10321920A 
9  -0.2740445N 
10 -0.1768182NA
11 0.09821190A 
12 0.13395063C 
13 -0.3617034OA
14 0.09759956C 
15 0.02242796C 
16 -0.1591155SA
17 -0.0046673C 
18 -0.0197806C 
19 0.08468962C 
20 -0.3198820NA
21 0.23386711C 
22 -0.2735464OA
23 -0.3683250N 
24 0.12663377C 
25 -0.3495976OA
26 0.16001772C 
27 -0.0887324Cl


$$$$
