
     RDKit          3D

 35 35  0  0  0  0  0  0  0  0999 V2000
   -5.7746   -4.5952    0.0915 C   0  0  0  0  0  0  0  0  0  0  0  0
   -6.5851   -3.6373   -0.5074 O   0  0  0  0  0  0  0  0  0  0  0  0
   -5.8053   -2.5315   -0.7752 C   0  0  0  0  0  3  0  0  0  0  0  0
   -4.6368   -2.4874   -0.0130 O   0  0  0  0  0  0  0  0  0  0  0  0
   -4.3503   -1.1553    0.2235 C   0  0  2  0  0  0  0  0  0  0  0  0
   -3.1158   -0.9431    1.0350 C   0  0  0  0  0  0  0  0  0  0  0  0
   -5.5444   -0.4407    0.7936 C   0  0  0  0  0  3  0  0  0  0  0  0
   -5.6853    0.8883    0.1137 C   0  0  1  0  0  0  0  0  0  0  0  0
   -5.1725    1.9964    0.9740 C   0  0  0  0  0  3  0  0  0  0  0  0
   -5.3400    3.2781    0.2464 C   0  0  0  0  0  0  0  0  0  0  0  0
   -6.5390    3.7668    0.0211 C   0  0  0  0  0  0  0  0  0  0  0  0
   -7.7745    3.0622    0.4820 C   0  0  0  0  0  0  0  0  0  0  0  0
   -5.1813    0.9073   -1.2893 C   0  0  0  0  0  3  0  0  0  0  0  0
   -3.8980    0.3523   -1.4190 O   0  0  0  0  0  0  0  0  0  0  0  0
   -3.0224    0.9766   -0.5363 C   0  0  0  0  0  3  0  0  0  0  0  0
   -2.2060   -0.0059    0.2676 C   0  0  2  0  0  0  0  0  0  0  0  0
   -1.4456   -0.7951   -0.5951 O   0  0  0  0  0  0  0  0  0  0  0  0
   -0.6327    0.0431   -1.2807 N   0  0  0  0  0  2  0  0  0  0  0  0
    0.5610    0.0971   -0.6026 O   0  0  0  0  0  0  0  0  0  0  0  0
    0.9889    1.4195   -0.6135 C   0  0  0  0  0  3  0  0  0  0  0  0
    2.4650    1.5723   -0.7837 C   0  0  2  0  0  0  0  0  0  0  0  0
    2.8529    1.0098   -1.9752 O   0  0  0  0  0  0  0  0  0  0  0  0
    3.1653    1.0311    0.4200 C   0  0  0  0  0  0  0  0  0  0  0  0
    2.9956   -0.3162    0.6232 O   0  0  0  0  0  0  0  0  0  0  0  0
    3.6758   -0.7132    1.7494 C   0  0  2  0  0  0  0  0  0  0  0  0
    3.2039   -0.0289    2.9506 N   0  0  0  0  0  1  0  0  0  0  0  0
    5.0183   -0.4594    1.6155 O   0  0  0  0  0  0  0  0  0  0  0  0
    5.2713    0.8860    1.4284 C   0  0  0  0  0  0  0  0  0  0  0  0
    6.6329    1.0748    1.3012 O   0  0  0  0  0  0  0  0  0  0  0  0
    7.1297    0.3610    0.2097 C   0  0  2  0  0  0  0  0  0  0  0  0
    6.4576    0.8472   -0.9812 N   0  0  0  0  0  1  0  0  0  0  0  0
    6.8576   -1.0082    0.4265 O   0  0  0  0  0  0  0  0  0  0  0  0
    7.3318   -1.7681   -0.6325 C   0  0  0  0  0  3  0  0  0  0  0  0
    8.5492   -1.1863   -1.0261 O   0  0  0  0  0  0  0  0  0  0  0  0
    9.5529   -1.4979   -0.1074 C   0  0  0  0  0  2  0  0  0  0  0  0
  1  2  1  0
  2  3  1  0
  3  4  1  0
  5  4  1  1
  5  6  1  0
  5  7  1  0
  7  8  1  0
  8  9  1  1
  9 10  1  0
 10 11  2  3
 11 12  1  0
  8 13  1  0
 13 14  1  0
 14 15  1  0
 15 16  1  0
 16 17  1  6
 17 18  1  0
 18 19  1  0
 19 20  1  0
 20 21  1  0
 21 22  1  6
 21 23  1  0
 23 24  1  0
 24 25  1  0
 25 26  1  1
 25 27  1  0
 27 28  1  0
 28 29  1  0
 29 30  1  0
 30 31  1  6
 30 32  1  0
 32 33  1  0
 33 34  1  0
 34 35  1  0
 16  6  1  0
M  RAD  8   3   2   7   2   9   2  13   2  15   2  18   3  20   2  26   2
M  CHG  3  18   1  26   1  31   1
M  RAD  3  31   2  33   2  35   3
M  END
>  <fragInfo>  (1) 
5 6 7 8 13 14 15 16
1 2
3
4
9
10 11 12
17
18
19
20
21 22
23
24
25 26
27
28
29
30 31
32
33
34 35


>  <torsionInfo>  (1) 
4 5 3 0
8 9 0 4
16 17 0 6
2 3 1 2
3 4 2 3
9 10 4 5
17 18 6 7
18 19 7 8
19 20 8 9
20 21 9 10
21 23 10 11
23 24 11 12
24 25 12 13
25 27 13 14
27 28 14 15
28 29 15 16
29 30 16 17
30 32 17 18
32 33 18 19
33 34 19 20


>  <atomInfo>  (1) 
1  0.03885651C 
2  -0.3513312OA
3  0.20895205C 
4  -0.3442042OA
5  0.06726982C 
6  0.00973481C 
7  -0.0030671C 
8  0.00016111C 
9  -0.0109014C 
10 -0.0847098C 
11 -0.0913509C 
12 -0.0469806C 
13 0.08836182C 
14 -0.3661381OA
15 0.11998603C 
16 0.16675620C 
17 -0.0371835OA
18 0.50510139N 
19 -0.0341065OA
20 0.19893672C 
21 0.11361006C 
22 -0.3876033OA
23 0.08518043C 
24 -0.2885115OA
25 0.49756046C 
26 0.49423665N 
27 -0.2640984OA
28 0.16564487C 
29 -0.2640289OA
30 0.49985102C 
31 0.49434227N 
32 -0.2559442OA
33 0.21879922C 
34 -0.3386353OA
35 0.11869230C 


$$$$
