
     RDKit          3D

 43 43  0  0  0  0  0  0  0  0999 V2000
   -9.1538   -1.6052    0.2524 O   0  0  0  0  0  0  0  0  0  0  0  0
   -8.3166   -2.5003    0.7545 O   0  0  0  0  0  0  0  0  0  0  0  0
   -7.0352   -1.9482    0.8662 C   0  0  0  0  0  3  0  0  0  0  0  0
   -6.9098   -0.9832   -0.1029 O   0  0  0  0  0  0  0  0  0  0  0  0
   -5.7428   -0.2433    0.0824 C   0  0  2  0  0  0  0  0  0  0  0  0
   -5.5823    0.8241   -0.9706 C   0  0  0  0  0  0  0  0  0  0  0  0
   -5.5204    0.2991   -2.2585 O   0  0  0  0  0  0  0  0  0  0  0  0
   -4.5374   -1.1927    0.0521 C   0  0  1  0  0  0  0  0  0  0  0  0
   -4.5431   -1.8020   -1.1780 O   0  0  0  0  0  0  0  0  0  0  0  0
   -3.5054   -2.6876   -1.3408 C   0  0  0  0  0  2  0  0  0  0  0  0
   -3.3294   -0.3829    0.3530 C   0  0  1  0  0  0  0  0  0  0  0  0
   -2.0491   -1.1363    0.3687 C   0  0  2  0  0  0  0  0  0  0  0  0
   -1.1455   -0.4982    1.4238 C   0  0  0  0  0  3  0  0  0  0  0  0
   -1.6974   -0.5354    2.6793 O   0  0  0  0  0  0  0  0  0  0  0  0
   -2.1412   -1.7802    3.0641 C   0  0  0  0  0  2  0  0  0  0  0  0
   -1.4212   -0.9354   -0.8749 O   0  0  0  0  0  0  0  0  0  0  0  0
   -0.1289   -0.4692   -0.7408 C   0  0  1  0  0  0  0  0  0  0  0  0
   -0.0696    0.9535   -0.2527 C   0  0  0  0  0  3  0  0  0  0  0  0
   -1.1774    1.8065   -0.7825 C   0  0  0  0  0  3  0  0  0  0  0  0
   -2.2483    1.0534   -1.2469 O   0  0  0  0  0  0  0  0  0  0  0  0
   -3.2744    0.9498   -0.3079 C   0  0  2  0  0  0  0  0  0  0  0  0
   -2.9603    1.9654    0.7630 C   0  0  0  0  0  0  0  0  0  0  0  0
   -3.1436    3.2493    0.6017 C   0  0  0  0  0  0  0  0  0  0  0  0
   -3.6790    3.7721   -0.6668 C   0  0  0  0  0  0  0  0  0  0  0  0
   -4.9740    4.5042   -0.3962 C   0  0  0  0  0  3  0  0  0  0  0  0
   -4.7566    5.6538    0.5495 C   0  0  0  0  0  3  0  0  0  0  0  0
   -4.0048    5.1454    1.7604 C   0  0  0  0  0  2  0  0  0  0  0  0
    0.5963   -1.2655    0.1432 O   0  0  0  0  0  0  0  0  0  0  0  0
    1.8929   -0.7720    0.2579 C   0  0  0  0  0  3  0  0  0  0  0  0
    2.7287   -1.5097   -0.7814 C   0  0  0  0  0  3  0  0  0  0  0  0
    3.3065   -0.5507   -1.8031 C   0  0  0  0  0  0  0  0  0  0  0  0
    4.1795    0.4395   -1.0661 C   0  0  0  0  0  3  0  0  0  0  0  0
    5.4627   -0.0913   -1.0261 O   0  0  0  0  0  0  0  0  0  0  0  0
    5.6288   -0.9686    0.0392 C   0  0  0  0  0  3  0  0  0  0  0  0
    6.4129   -2.1880   -0.4067 C   0  0  0  0  0  3  0  0  0  0  0  0
    7.7106   -2.3333    0.3678 C   0  0  0  0  0  3  0  0  0  0  0  0
    8.8031   -2.4804   -0.4773 O   0  0  0  0  0  0  0  0  0  0  0  0
    9.2602   -1.2427   -0.8856 C   0  0  0  0  0  3  0  0  0  0  0  0
    8.6108   -0.1830   -0.0435 C   0  0  2  0  0  0  0  0  0  0  0  0
    9.0660    1.2043   -0.4357 C   0  0  0  0  0  3  0  0  0  0  0  0
   10.4269    1.3858   -0.3045 O   0  0  0  0  0  0  0  0  0  0  0  0
    8.7580   -0.4352    1.4382 C   0  0  0  0  0  3  0  0  0  0  0  0
   10.2035   -0.4857    1.8660 C   0  0  0  0  0  2  0  0  0  0  0  0
  1  2  1  0
  2  3  1  0
  3  4  1  0
  4  5  1  0
  5  6  1  6
  6  7  1  0
  5  8  1  0
  8  9  1  6
  9 10  1  0
  8 11  1  0
 11 12  1  6
 12 13  1  1
 13 14  1  0
 14 15  1  0
 12 16  1  0
 16 17  1  0
 17 18  1  0
 18 19  1  0
 19 20  1  0
 21 20  1  6
 21 22  1  0
 22 23  2  3
 23 24  1  0
 24 25  1  0
 25 26  1  0
 26 27  1  0
 17 28  1  1
 28 29  1  0
 29 30  1  0
 30 31  1  0
 31 32  1  0
 32 33  1  0
 33 34  1  0
 34 35  1  0
 35 36  1  0
 36 37  1  0
 37 38  1  0
 39 38  1  6
 39 40  1  0
 40 41  1  0
 39 42  1  0
 42 43  1  0
 21 11  1  0
M  RAD  8   3   2  10   3  13   2  15   3  18   2  19   2  25   2  26   2
M  RAD  8  27   3  29   2  30   2  32   2  34   2  35   2  36   2  38   2
M  RAD  3  40   2  42   2  43   3
M  END
>  <fragInfo>  (1) 
11 12 16 17 18 19 20 21
1 2
3
4
5
6 7
8
9 10
13
14 15
22 23
24
25
26 27
28
29
30
31
32
33
34
35
36
37
38
39
40 41
42 43


>  <torsionInfo>  (1) 
8 11 6 0
12 13 0 8
17 28 0 14
21 22 0 10
2 3 1 2
3 4 2 3
4 5 3 4
5 6 4 5
5 8 4 6
8 9 6 7
13 14 8 9
23 24 10 11
24 25 11 12
25 26 12 13
28 29 14 15
29 30 15 16
30 31 16 17
31 32 17 18
32 33 18 19
33 34 19 20
34 35 20 21
35 36 21 22
36 37 22 23
37 38 23 24
38 39 24 25
39 40 25 26
39 42 25 27


>  <atomInfo>  (1) 
1  -0.2489199OA
2  -0.2014076OA
3  0.24557457C 
4  -0.3371780OA
5  0.11061124C 
6  0.07205325C 
7  -0.3935680OA
8  0.09486440C 
9  -0.3660342OA
10 0.11559815C 
11 0.04673949C 
12 0.09768709C 
13 0.11355227C 
14 -0.3637969OA
15 0.11571912C 
16 -0.3456789OA
17 0.16404720C 
18 0.04915125C 
19 0.09317307C 
20 -0.3671999OA
21 0.08406380C 
22 -0.0594253C 
23 -0.0856674C 
24 -0.0315537C 
25 -0.0311243C 
26 -0.0311755C 
27 -0.0311859C 
28 -0.3459848OA
29 0.09047738C 
30 -0.0042157C 
31 -0.0183535C 
32 0.08455105C 
33 -0.3691541OA
34 0.09038083C 
35 0.02454051C 
36 0.09039820C 
37 -0.3687455OA
38 0.09020628C 
39 0.01965191C 
40 0.08591921C 
41 -0.3900141OA
42 -0.0264237C 
43 -0.0310019C 


$$$$
