
     RDKit          3D

 39 42  0  0  0  0  0  0  0  0999 V2000
    8.8598    0.9096   -0.6843 C   0  0  0  0  0  0  0  0  0  0  0  0
    8.5433    0.9910   -2.0632 O   0  0  0  0  0  0  0  0  0  0  0  0
    7.7222   -0.0304   -2.5860 C   0  0  0  0  0  0  0  0  0  0  0  0
    6.7395   -0.5172   -1.8066 C   0  0  0  0  0  0  0  0  0  0  0  0
    6.5545    0.0132   -0.4748 C   0  0  0  0  0  0  0  0  0  0  0  0
    5.6342   -0.4060    0.3269 C   0  0  0  0  0  0  0  0  0  0  0  0
    4.6698   -1.4601   -0.0022 C   0  0  0  0  0  0  0  0  0  0  0  0
    3.2734   -0.9098    0.1126 C   0  0  0  0  0  0  0  0  0  0  0  0
    3.0983    0.1964   -0.8103 N   0  0  0  0  0  0  0  0  0  0  0  0
    3.9632    1.2775   -0.3006 C   0  0  0  0  0  0  0  0  0  0  0  0
    1.7331    0.7111   -0.7600 C   0  0  0  0  0  0  0  0  0  0  0  0
    1.4627    1.3846    0.5452 C   0  0  0  0  0  0  0  0  0  0  0  0
    1.6033    0.5005    1.7553 C   0  0  0  0  0  0  0  0  0  0  0  0
    0.6390   -0.6223    1.6695 C   0  0  0  0  0  0  0  0  0  0  0  0
   -0.7044   -0.3967    1.6197 N   0  0  0  0  0  0  0  0  0  0  0  0
   -1.4239    0.1664    0.6186 C   0  0  2  0  0  0  0  0  0  0  0  0
   -2.6541    0.6246    0.9149 C   0  0  0  0  0  0  0  0  0  0  0  0
   -4.1618   -0.3455    1.4947 Br  0  0  0  0  0  0  0  0  0  0  0  0
   -1.9086   -0.9664   -0.4358 C   0  0  0  0  0  0  0  0  0  0  0  0
   -2.0741   -0.3036   -1.5760 C   0  0  0  0  0  0  0  0  0  0  0  0
   -1.7574    1.1686   -1.3772 C   0  0  0  0  0  0  0  0  0  0  0  0
   -2.4053    2.2436   -1.3142 C   0  0  0  0  0  0  0  0  0  0  0  0
   -4.1488    2.3807   -1.4962 S   0  0  0  0  0  0  0  0  0  0  0  0
   -4.8303    1.1183   -2.5896 C   0  0  0  0  0  0  0  0  0  0  0  0
   -1.7487    3.5620   -0.8021 C   0  0  0  0  0  0  0  0  0  0  0  0
   -1.1119    3.3015    0.4108 O   0  0  0  0  0  0  0  0  0  0  0  0
   -1.7667    3.2695    1.6093 C   0  0  0  0  0  0  0  0  0  0  0  0
   -1.1987    2.2025    2.5182 C   0  0  0  0  0  0  0  0  0  0  0  0
   -1.9521    1.0653    3.0662 C   0  0  0  0  0  0  0  0  0  0  0  0
   -1.4218   -0.3333    2.9411 C   0  0  1  0  0  0  0  0  0  0  0  0
   -2.1212   -1.5193    2.9088 C   0  0  2  0  0  0  0  0  0  0  0  0
   -2.4704   -2.8419    2.8547 C   0  0  0  0  0  0  0  0  0  0  0  0
   -1.5562   -2.6999    1.6364 S   0  0  1  0  0  0  0  0  0  0  0  0
   -2.0635   -2.2111    0.1451 C   0  0  0  0  0  0  0  0  0  0  0  0
   -2.7476   -3.3566   -0.4811 C   0  0  0  0  0  0  0  0  0  0  0  0
   -3.4727   -3.0400   -1.7394 C   0  0  0  0  0  0  0  0  0  0  0  0
   -4.8651   -2.5367   -1.4627 C   0  0  0  0  0  0  0  0  0  0  0  0
   -5.1898   -1.3676   -2.3774 C   0  0  0  0  0  0  0  0  0  0  0  0
   -4.7415   -0.2076   -2.0080 C   0  0  0  0  0  0  0  0  0  0  0  0
  1  2  1  0
  2  3  1  0
  3  4  2  3
  4  5  1  0
  5  6  2  3
  6  7  1  0
  7  8  1  0
  8  9  1  0
  9 10  1  0
  9 11  1  0
 11 12  1  0
 12 13  1  0
 13 14  1  0
 14 15  1  0
 15 16  1  0
 16 17  1  1
 17 18  1  0
 16 19  1  0
 19 20  2  3
 20 21  1  0
 21 22  2  3
 22 23  1  0
 23 24  1  0
 22 25  1  0
 25 26  1  0
 26 27  1  0
 27 28  1  0
 28 29  1  0
 30 29  1  6
 30 31  1  0
 31 32  1  1
 32 33  2  0
 33 34  2  0
 34 35  1  0
 35 36  1  0
 36 37  1  0
 37 38  1  0
 38 39  2  3
 30 15  1  0
 34 19  1  0
 39 24  1  0
 33 31  1  1
M  END
>  <fragInfo>  (1) 
15 16 19 20 21 22 23 24 25 26 27 28 29 30 31 32 33 34 35 36 37 38 39
1 2
3 4
5 6
7
8
9 10
11
12
13
14
17 18


>  <torsionInfo>  (1) 
14 15 10 0
16 17 0 11
2 3 1 2
4 5 2 3
6 7 3 4
7 8 4 5
8 9 5 6
9 11 6 7
11 12 7 8
12 13 8 9
13 14 9 10


>  <atomInfo>  (1) 
1  0.07660055C 
2  -0.5043680OA
3  0.08239867C 
4  -0.0278699C 
5  -0.0631807C 
6  -0.0831537C 
7  -0.0219106C 
8  0.00129628C 
9  -0.3060597NA
10 -0.0133775C 
11 -0.0021188C 
12 -0.0392107C 
13 -0.0391640C 
14 -0.0008219C 
15 -0.2911260NA
16 0.04552603C 
17 0.02299886C 
18 -0.0907289Br
19 -0.0218208C 
20 -0.0558080C 
21 -0.0499769C 
22 0.01082263C 
23 -0.1240099SA
24 0.01580425C 
25 0.07750831C 
26 -0.3762380OA
27 0.04709769C 
28 -0.0280459C 
29 -0.0339636C 
30 0.02501601C 
31 0.03140519C 
32 -0.0538341C 
33 -0.2041885S 
34 -0.0263897C 
35 -0.0226314C 
36 -0.0452914C 
37 -0.0347089C 
38 -0.0876888C 
39 -0.0782612C 


$$$$
