
     RDKit          3D

 18 17  0  0  0  0  0  0  0  0999 V2000
   -6.0470    0.7947   -0.6630 C   0  0  0  0  0  0  0  0  0  0  0  0
   -4.6165    0.9453   -1.1223 C   0  0  0  0  0  0  0  0  0  0  0  0
   -4.6097    1.6545   -2.4589 C   0  0  0  0  0  0  0  0  0  0  0  0
   -3.9334   -0.3823   -1.2915 C   0  0  0  0  0  0  0  0  0  0  0  0
   -3.8851   -1.1816   -0.0194 C   0  0  0  0  0  0  0  0  0  0  0  0
   -3.1422   -0.4666    1.0828 C   0  0  0  0  0  0  0  0  0  0  0  0
   -1.7186   -0.2081    0.6313 C   0  0  1  0  0  0  0  0  0  0  0  0
   -1.0202    0.5109    1.7758 C   0  0  0  0  0  0  0  0  0  0  0  0
   -1.0724   -1.5602    0.3909 C   0  0  0  0  0  3  0  0  0  0  0  0
    0.3623   -1.4022   -0.0666 C   0  0  0  0  0  0  0  0  0  0  0  0
    1.1919   -0.6692    0.9727 C   0  0  0  0  0  0  0  0  0  0  0  0
    2.5935   -0.5583    0.4377 C   0  0  2  0  0  0  0  0  0  0  0  0
    3.1805   -1.9091    0.1865 C   0  0  0  0  0  0  0  0  0  0  0  0
    3.4504    0.1649    1.4518 C   0  0  0  0  0  3  0  0  0  0  0  0
    4.8715    0.3218    1.0000 C   0  0  0  0  0  0  0  0  0  0  0  0
    4.8365    1.1162   -0.2787 C   0  0  0  0  0  0  0  0  0  0  0  0
    4.1130    0.5864   -1.3987 N   0  0  0  0  0  1  0  0  0  0  0  0
    5.4455    2.2427   -0.3521 N   0  0  0  0  0  2  0  0  0  0  0  0
  1  2  1  0
  2  3  1  0
  2  4  1  0
  4  5  1  0
  5  6  1  0
  6  7  1  0
  7  8  1  1
  7  9  1  0
  9 10  1  0
 10 11  1  0
 11 12  1  0
 12 13  1  1
 12 14  1  0
 14 15  1  0
 15 16  1  0
 16 17  1  0
 16 18  2  0
M  CHG  2  17   1  18  -1
M  RAD  3   9   2  14   2  17   2
M  END
>  <fragInfo>  (1) 
1 2 3
4
5
6
7 8
9
10
11
12 13
14
15
16 17 18


>  <torsionInfo>  (1) 
2 4 0 1
4 5 1 2
5 6 2 3
6 7 3 4
7 9 4 5
9 10 5 6
10 11 6 7
11 12 7 8
12 14 8 9
14 15 9 10
15 16 10 11


>  <atomInfo>  (1) 
1  -0.0627736C 
2  -0.0471324C 
3  -0.0627736C 
4  -0.0509643C 
5  -0.0527983C 
6  -0.0504266C 
7  -0.0411603C 
8  -0.0622342C 
9  -0.0357403C 
10 -0.0496540C 
11 -0.0501381C 
12 -0.0406740C 
13 -0.0622199C 
14 -0.0273265C 
15 0.02215348C 
16 0.20056221C 
17 0.43996959N 
18 -0.7400004NA


$$$$
