
     RDKit          3D

 39 41  0  0  0  0  0  0  0  0999 V2000
    1.1292    0.0869   -0.6825 C   0  0  0  0  0  0  0  0  0  0  0  0
    1.0327   -1.1705    0.1343 C   0  0  1  0  0  0  0  0  0  0  0  0
   -0.3870   -1.3582    0.6323 C   0  0  0  0  0  0  0  0  0  0  0  0
    1.4993   -2.3807   -0.6509 C   0  0  0  0  0  0  0  0  0  0  0  0
    1.5792   -3.5748    0.2729 C   0  0  0  0  0  0  0  0  0  0  0  0
    0.9161   -4.7472   -0.4194 C   0  0  0  0  0  0  0  0  0  0  0  0
   -0.2482   -5.2923    0.3536 C   0  0  1  0  0  0  0  0  0  0  0  0
   -0.1768   -4.9509    1.8097 C   0  0  0  0  0  0  0  0  0  0  0  0
   -1.5302   -4.7797   -0.2508 C   0  0  0  0  0  3  0  0  0  0  0  0
   -2.7256   -5.2277    0.5455 C   0  0  0  0  0  0  0  0  0  0  0  0
   -3.8164   -4.1911    0.6033 C   0  0  0  0  0  0  0  0  0  0  0  0
   -3.5784   -3.1394   -0.4568 C   0  0  0  0  0  3  0  0  0  0  0  0
   -4.4605   -1.9151   -0.1872 C   0  0  1  0  0  0  0  0  0  0  0  0
   -5.1202   -2.0052    1.0805 N   0  0  0  0  0  0  0  0  0  0  0  0
   -3.5807   -0.7068   -0.3352 C   0  0  0  0  0  0  0  0  0  0  0  0
   -4.0374    0.4528    0.5377 C   0  0  2  0  0  0  0  0  0  0  0  0
   -5.3489    0.1474    0.9279 F   0  0  0  0  0  0  0  0  0  0  0  0
   -4.1074    1.6964   -0.2841 C   0  0  1  0  0  0  0  0  0  0  0  0
   -4.5107    2.9226    0.3569 C   0  0  0  0  0  0  0  0  0  0  0  0
   -3.3877    3.5130    0.1003 C   0  0  0  0  0  0  0  0  0  0  0  0
   -2.7916    5.1743    0.4786 S   0  0  0  0  0  0  0  0  0  0  0  0
   -2.8411    2.3630   -0.5731 C   0  0  2  0  0  0  0  0  0  0  0  0
   -2.5387    2.5150   -2.0507 C   0  0  0  0  0  0  0  0  0  0  0  0
   -1.4145    3.8975   -2.3638 S   0  0  0  0  0  0  0  0  0  0  0  0
    0.2999    3.3912   -2.1664 C   0  0  1  0  0  0  0  0  0  0  0  0
    1.1550    4.6207   -2.0465 C   0  0  0  0  0  0  0  0  0  0  0  0
   -1.6481    1.7876    0.1695 C   0  0  0  0  0  0  0  0  0  0  0  0
   -0.5546    2.8460    0.1329 C   0  0  0  0  0  0  0  0  0  0  0  0
    0.3986    2.4879   -0.9569 C   0  0  2  0  0  0  0  0  0  0  0  0
    1.8382    2.4167   -0.4997 C   0  0  0  0  0  3  0  0  0  0  0  0
    2.7109    2.7045   -1.7037 C   0  0  0  0  0  0  0  0  0  0  0  0
    2.0939    1.0192    0.0191 C   0  0  2  0  0  0  0  0  0  0  0  0
    3.4995    0.5621   -0.3216 C   0  0  0  0  0  0  0  0  0  0  0  0
    4.4926    1.4615    0.3553 C   0  0  0  0  0  3  0  0  0  0  0  0
    5.9047    1.0109    0.0195 C   0  0  0  0  0  0  0  0  0  0  0  0
    6.0451   -0.4214    0.5249 C   0  0  0  0  0  0  0  0  0  0  0  0
    7.4119   -0.9618    0.2403 C   0  0  0  0  0  0  0  0  0  0  0  0
    8.4841   -0.1339    0.9097 C   0  0  0  0  0  0  0  0  0  0  0  0
    8.3137   -0.1202    2.3027 O   0  0  0  0  0  1  0  0  0  0  0  0
  1  2  1  0
  2  3  1  6
  2  4  1  0
  4  5  1  0
  5  6  1  0
  6  7  1  0
  7  8  1  1
  7  9  1  0
  9 10  1  0
 10 11  1  0
 11 12  1  0
 12 13  1  0
 13 14  1  1
 13 15  1  0
 15 16  1  0
 16 17  1  6
 18 16  1  0
 18 19  1  1
 19 20  2  0
 20 21  1  0
 20 22  1  0
 22 23  1  6
 23 24  1  0
 24 25  1  0
 25 26  1  1
 22 27  1  0
 27 28  1  0
 28 29  1  0
 29 30  1  1
 30 31  1  0
 30 32  1  0
 32 33  1  6
 33 34  1  0
 34 35  1  0
 35 36  1  0
 36 37  1  0
 37 38  1  0
 38 39  1  0
 32  1  1  0
 22 18  1  0
 29 25  1  0
M  CHG  1  39  -1
M  RAD  4   9   2  12   2  30   2  34   2
M  END
>  <fragInfo>  (1) 
1 2 3 4 5 6 7 8 9 10 11 12 13 14 15 16 17 18 19 20 21 22 23 24 25 26 27 28 29 30 31 32
33
34
35
36
37
38 39


>  <torsionInfo>  (1) 
32 33 0 1
33 34 1 2
34 35 2 3
35 36 3 4
36 37 4 5
37 38 5 6


>  <atomInfo>  (1) 
1  -0.0472915C 
2  -0.0439954C 
3  -0.0624991C 
4  -0.0506905C 
5  -0.0527880C 
6  -0.0504264C 
7  -0.0411603C 
8  -0.0622342C 
9  -0.0357391C 
10 -0.0495854C 
11 -0.0483593C 
12 -0.0217565C 
13 0.00982178C 
14 -0.3273214NA
15 -0.0055180C 
16 0.10876474C 
17 -0.2467432F 
18 0.02019788C 
19 -0.0676610C 
20 -0.0142637C 
21 -0.1475593SA
22 0.01886384C 
23 0.00442751C 
24 -0.1575909SA
25 0.00527827C 
26 -0.0530157C 
27 -0.0412256C 
28 -0.0479266C 
29 -0.0234826C 
30 -0.0199025C 
31 -0.0585274C 
32 -0.0346384C 
33 -0.0467637C 
34 -0.0382904C 
35 -0.0502194C 
36 -0.0543118C 
37 -0.0687533C 
38 -0.1399574C 
39 -0.8544378OA


$$$$
