
     RDKit          3D

 11 11  0  0  0  0  0  0  0  0999 V2000
    3.1251   -0.1996   -0.3638 O   0  0  0  0  0  0  0  0  0  0  0  0
    2.0322    0.5279    0.0903 C   0  0  0  0  0  0  0  0  0  0  0  0
    0.7948    0.1749   -0.7308 C   0  0  1  0  0  0  0  0  0  0  0  0
    0.5649   -1.2232   -0.5657 N   0  0  0  0  0  0  0  0  0  0  0  0
   -0.8070   -1.6247   -0.6570 C   0  0  0  0  0  3  0  0  0  0  0  0
   -1.7302   -0.8498    0.2408 C   0  0  2  0  0  0  0  0  0  0  0  0
   -2.7401   -0.3052   -0.5728 O   0  0  0  0  0  0  0  0  0  0  0  0
   -1.0287    0.3476    0.8776 C   0  0  1  0  0  0  0  0  0  0  0  0
   -0.0265   -0.1796    1.7088 O   0  0  0  0  0  0  0  0  0  0  0  0
   -0.3171    1.0551   -0.2633 C   0  0  1  0  0  0  0  0  0  0  0  0
    0.1325    2.2766    0.2358 O   0  0  0  0  0  0  0  0  0  0  0  0
  1  2  1  0
  3  2  1  1
  3  4  1  0
  4  5  1  0
  5  6  1  0
  6  7  1  6
  6  8  1  0
  8  9  1  1
  8 10  1  0
 10 11  1  1
 10  3  1  0
M  RAD  1   5   2
M  END
>  <fragInfo>  (1) 
3 4 5 6 7 8 9 10 11
1 2


>  <torsionInfo>  (1) 
2 3 1 0


>  <atomInfo>  (1) 
1  -0.3946489OA
2  0.06106530C 
3  0.05928130C 
4  -0.3025387NA
5  0.05403844C 
6  0.09936216C 
7  -0.3886222OA
8  0.10889851C 
9  -0.3875846OA
10 0.09997869C 
11 -0.3885943OA


$$$$
