
     RDKit          3D

 20 21  0  0  0  0  0  0  0  0999 V2000
   -1.8182   -2.0131   -1.5509 O   0  0  0  0  0  0  0  0  0  0  0  0
   -1.8806   -0.7928   -0.8681 C   0  0  2  0  0  0  0  0  0  0  0  0
   -0.6265   -0.5180   -0.0896 C   0  0  0  0  0  3  0  0  0  0  0  0
    0.5045   -0.2219   -0.9498 N   0  0  0  0  0  0  0  0  0  0  0  0
    1.6504   -0.8982   -0.4075 C   0  0  2  0  0  0  0  0  0  0  0  0
    1.4491   -2.3448   -0.1387 C   0  0  0  0  0  0  0  0  0  0  0  0
    1.1234   -2.9721   -1.3426 O   0  0  0  0  0  0  0  0  0  0  0  0
    2.1594   -0.1090    0.7596 C   0  0  1  0  0  0  0  0  0  0  0  0
    3.0687   -0.8494    1.5101 O   0  0  0  0  0  0  0  0  0  0  0  0
    2.8243    1.1352    0.1551 C   0  0  2  0  0  0  0  0  0  0  0  0
    3.0864    2.0972    1.0929 O   0  0  0  0  0  0  0  0  0  0  0  0
    2.0683    1.5499   -0.9147 O   0  0  0  0  0  0  0  0  0  0  0  0
    0.7299    1.2270   -0.8295 C   0  0  2  0  0  0  0  0  0  0  0  0
    0.1968    1.7146    0.3694 O   0  0  0  0  0  0  0  0  0  0  0  0
   -0.9423    2.3102    0.0729 O   0  0  0  0  0  0  0  0  0  0  0  0
   -1.9047    1.9190    0.9032 O   0  0  0  0  0  0  0  0  0  0  0  0
   -2.7984    1.2938    0.1551 O   0  0  0  0  0  0  0  0  0  0  0  0
   -3.3070    0.2511    0.7683 O   0  0  0  0  0  0  0  0  0  0  0  0
   -3.0072   -0.9442    0.1560 C   0  0  2  0  0  0  0  0  0  0  0  0
   -2.5764   -1.8346    1.1487 O   0  0  0  0  0  0  0  0  0  0  0  0
  2  1  1  1
  2  3  1  0
  3  4  1  0
  4  5  1  0
  5  6  1  1
  6  7  1  0
  5  8  1  0
  8  9  1  6
  8 10  1  0
 10 11  1  1
 10 12  1  0
 13 12  1  1
 13 14  1  0
 14 15  1  0
 15 16  1  0
 16 17  1  0
 17 18  1  0
 18 19  1  0
 19 20  1  1
 19  2  1  0
 13  4  1  0
M  RAD  1   3   2
M  END
>  <fragInfo>  (1) 
1 2 3 4 5 8 9 10 11 12 13 14 15 16 17 18 19 20
6 7


>  <torsionInfo>  (1) 
5 6 0 1


>  <atomInfo>  (1) 
1  -0.3859892OA
2  0.12504029C 
3  0.06440085C 
4  -0.2371591NA
5  0.06889904C 
6  0.06156115C 
7  -0.3946354OA
8  0.12267566C 
9  -0.3860816OA
10 0.18658764C 
11 -0.3656481OA
12 -0.3051528OA
13 0.25602967C 
14 -0.1538445OA
15 -0.0298946OA
16 -0.0047270OA
17 -0.0312901OA
18 -0.1687933OA
19 0.21940701C 
20 -0.3635130OA


$$$$
