
     RDKit          3D

 23 24  0  0  0  0  0  0  0  0999 V2000
   -2.1560   -3.2029    2.6615 C   0  0  0  0  0  0  0  0  0  0  0  0
   -2.3083   -1.8098    2.1202 C   0  0  0  0  0  0  0  0  0  0  0  0
   -3.4087   -1.0265    1.9744 C   0  0  0  0  0  0  0  0  0  0  0  0
   -3.0531    0.1995    1.4575 C   0  0  0  0  0  0  0  0  0  0  0  0
   -1.7466    0.1825    1.2837 C   0  0  0  0  0  0  0  0  0  0  0  0
   -0.8293    1.1139    0.6179 C   0  0  0  0  0  0  0  0  0  0  0  0
   -1.3681    2.1158   -0.2100 C   0  0  0  0  0  0  0  0  0  0  0  0
   -0.5632    3.0315   -0.8228 C   0  0  0  0  0  0  0  0  0  0  0  0
    0.7917    3.0316   -0.6779 C   0  0  0  0  0  0  0  0  0  0  0  0
    1.8501    4.1340   -1.5484 S   0  0  0  0  0  0  0  0  0  0  0  0
    3.4507    3.3608   -1.6354 C   0  0  0  0  0  0  0  0  0  0  0  0
    1.9352    5.4702   -0.9301 O   0  0  0  0  0  0  0  0  0  0  0  0
    1.3371    4.3310   -2.9795 O   0  0  0  0  0  0  0  0  0  0  0  0
    1.3609    2.0555    0.1365 C   0  0  0  0  0  0  0  0  0  0  0  0
    0.5371    1.1223    0.7636 C   0  0  0  0  0  0  0  0  0  0  0  0
   -1.2335   -1.0734    1.6895 N   0  0  0  0  0  0  0  0  0  0  0  0
    0.0983   -1.3873    1.4781 C   0  0  0  0  0  0  0  0  0  0  0  0
    0.9703   -2.2178    1.3230 C   0  0  0  0  0  0  0  0  0  0  0  0
    0.9656   -3.9832    1.2781 S   0  0  0  0  0  0  0  0  0  0  0  0
   -0.4506   -4.4464    0.1330 C   0  0  0  0  0  0  0  0  0  0  0  0
   -0.1282   -3.3514   -1.3144 S   0  0  0  0  0  0  0  0  0  0  0  0
    1.4170   -3.6992   -2.0224 C   0  0  0  0  0  0  0  0  0  0  0  0
    2.5317   -3.9504   -2.5095 N   0  0  0  0  0  0  0  0  0  0  0  0
  1  2  1  0
  2  3  2  0
  3  4  1  0
  4  5  2  0
  5  6  1  0
  6  7  2  0
  7  8  1  0
  8  9  2  0
  9 10  1  0
 10 11  1  0
 10 12  2  0
 10 13  2  0
  9 14  1  0
 14 15  2  0
  5 16  1  0
 16 17  1  0
 17 18  2  3
 18 19  1  0
 19 20  1  0
 20 21  1  0
 21 22  1  0
 22 23  3  0
 16  2  1  0
 15  6  1  0
M  END
>  <fragInfo>  (1) 
1 2 3 4 5 16
6 7 8 9 14 15
10 11 12 13
17 18
19
20
21 22 23


>  <torsionInfo>  (1) 
5 6 0 1
16 17 0 3
9 10 1 2
18 19 3 4
19 20 4 5
20 21 5 6


>  <atomInfo>  (1) 
1  -0.0238757C 
2  0.01962937A 
3  -0.0404741A 
4  -0.0357141A 
5  0.05248712A 
6  -0.0014507A 
7  -0.0515825A 
8  -0.0428631A 
9  0.06659357A 
10 0.17501854S 
11 0.04337195C 
12 -0.2239911OA
13 -0.2239911OA
14 -0.0428631A 
15 -0.0515825A 
16 -0.3200811N 
17 0.01545178C 
18 -0.0116434C 
19 -0.1205333SA
20 0.05772496C 
21 -0.0351121SA
22 0.13371685C 
23 -0.1851264NA


$$$$
