
     RDKit          3D

 11 11  0  0  0  0  0  0  0  0999 V2000
   -3.2419   -0.5977    0.3975 O   0  0  0  0  0  0  0  0  0  0  0  0
   -2.3547    0.4879    0.2792 C   0  0  0  0  0  0  0  0  0  0  0  0
   -0.9908   -0.0548    0.0705 C   0  0  2  0  0  0  0  0  0  0  0  0
   -0.4976   -0.8931    1.1168 N   0  0  0  0  0  0  0  0  0  0  0  0
    0.8661   -0.5567    1.4532 C   0  0  0  0  0  0  0  0  0  0  0  0
    1.8026   -0.6032    0.2902 C   0  0  2  0  0  0  0  0  0  0  0  0
    2.9702    0.0957    0.6180 O   0  0  0  0  0  0  0  0  0  0  0  0
    1.2113    0.1332   -0.9185 C   0  0  1  0  0  0  0  0  0  0  0  0
    0.6065   -0.8449   -1.7410 O   0  0  0  0  0  0  0  0  0  0  0  0
    0.0380    0.9386   -0.3444 C   0  0  1  0  0  0  0  0  0  0  0  0
   -0.4097    1.8949   -1.2216 O   0  0  0  0  0  0  0  0  0  0  0  0
  1  2  1  0
  3  2  1  1
  3  4  1  0
  4  5  1  0
  5  6  1  0
  6  7  1  1
  6  8  1  0
  8  9  1  6
  8 10  1  0
 10 11  1  6
 10  3  1  0
M  END
>  <fragInfo>  (1) 
3 4 5 6 7 8 9 10 11
1 2


>  <torsionInfo>  (1) 
2 3 1 0


>  <atomInfo>  (1) 
1  -0.3946490OA
2  0.06105637C 
3  0.05902457C 
4  -0.3067635NA
5  0.02436730C 
6  0.09488935C 
7  -0.3889905OA
8  0.10855016C 
9  -0.3875979OA
10 0.09995681C 
11 -0.3885947OA


$$$$
