
     RDKit          3D

 15 15  0  0  0  0  0  0  0  0999 V2000
   -0.4522   -2.3950    0.1765 C   0  0  0  0  0  0  0  0  0  0  0  0
   -0.7609   -1.1724   -0.6237 C   0  0  1  0  0  0  0  0  0  0  0  0
   -2.2006   -0.9186   -0.8781 C   0  0  0  0  0  0  0  0  0  0  0  0
   -2.8128    0.1010    0.0561 C   0  0  2  0  0  0  0  0  0  0  0  0
   -4.0780    0.4306   -0.3833 O   0  0  0  0  0  0  0  0  0  0  0  0
   -1.9645    1.3533    0.0614 C   0  0  2  0  0  0  0  0  0  0  0  0
   -1.6881    1.7107   -1.2626 O   0  0  0  0  0  0  0  0  0  0  0  0
   -0.6365    0.9701    0.6908 C   0  0  1  0  0  0  0  0  0  0  0  0
   -0.9537    0.1973    1.8316 O   0  0  0  0  0  0  0  0  0  0  0  0
    0.0382    0.0275   -0.3049 C   0  0  1  0  0  0  0  0  0  0  0  0
    1.3208   -0.2922    0.2728 N   0  0  0  0  0  0  0  0  0  0  0  0
    2.1907   -1.0305   -0.5798 C   0  0  0  0  0  3  0  0  0  0  0  0
    3.6107   -0.8488   -0.0867 C   0  0  0  0  0  0  0  0  0  0  0  0
    4.2873    0.3442   -0.7360 C   0  0  0  0  0  3  0  0  0  0  0  0
    4.0997    1.5225   -0.0185 O   0  0  0  0  0  0  0  0  0  0  0  0
  2  1  1  1
  2  3  1  0
  3  4  1  0
  4  5  1  6
  4  6  1  0
  6  7  1  6
  6  8  1  0
  8  9  1  1
  8 10  1  0
 10 11  1  1
 11 12  1  0
 12 13  1  0
 13 14  1  0
 14 15  1  0
 10  2  1  0
M  RAD  2  12   2  14   2
M  END
>  <fragInfo>  (1) 
1 2 3 4 5 6 7 8 9 10
11
12
13
14 15


>  <torsionInfo>  (1) 
10 11 0 1
11 12 1 2
12 13 2 3
13 14 3 4


>  <atomInfo>  (1) 
1  -0.0608233C 
2  -0.0236285C 
3  -0.0201755C 
4  0.08280077C 
5  -0.3903155OA
6  0.10722522C 
7  -0.3876533OA
8  0.09792914C 
9  -0.3886791OA
10 0.03839079C 
11 -0.3066600NA
12 0.02511697C 
13 -0.0074361C 
14 0.08146785C 
15 -0.3903717OA


$$$$
