
     RDKit          3D

 49 50  0  0  0  0  0  0  0  0999 V2000
   -1.7825   -0.1097   -1.6827 C   0  0  0  0  0  0  0  0  0  0  0  0
   -0.8988   -0.4634   -0.5196 C   0  0  2  0  0  0  0  0  0  0  0  0
    0.3944    0.3127   -0.5193 C   0  0  0  0  0  0  0  0  0  0  0  0
   -0.6386   -1.9682   -0.5601 C   0  0  0  0  0  0  0  0  0  0  0  0
   -1.9150   -2.6221   -1.0805 C   0  0  0  0  0  0  0  0  0  0  0  0
   -3.0707   -1.8402   -0.4547 C   0  0  0  0  0  0  0  0  0  0  0  0
   -4.0022   -2.8173    0.1877 C   0  0  1  0  0  0  0  0  0  0  0  0
   -3.6160   -4.2549   -0.0637 C   0  0  0  0  0  0  0  0  0  0  0  0
   -4.2935   -2.5305    1.6282 C   0  0  0  0  0  3  0  0  0  0  0  0
   -5.7803   -2.2508    1.7518 C   0  0  0  0  0  0  0  0  0  0  0  0
   -6.5634   -3.0156    0.7063 C   0  0  0  0  0  0  0  0  0  0  0  0
   -7.9183   -2.4142    0.4583 C   0  0  2  0  0  0  0  0  0  0  0  0
   -8.9193   -3.2274    1.2891 C   0  0  0  0  0  0  0  0  0  0  0  0
   -8.3519   -2.5124   -0.9723 C   0  0  0  0  0  0  0  0  0  0  0  0
   -8.2485   -1.1942   -1.7035 C   0  0  2  0  0  0  0  0  0  0  0  0
   -7.2238   -1.3446   -2.7285 N   0  0  0  0  0  0  0  0  0  0  0  0
   -7.8486   -0.0650   -0.7984 C   0  0  0  0  0  0  0  0  0  0  0  0
   -6.8781    0.8323   -1.5371 C   0  0  0  0  0  0  0  0  0  0  0  0
   -6.0554    1.6188   -0.5400 C   0  0  1  0  0  0  0  0  0  0  0  0
   -6.1283    0.9511    0.6831 O   0  0  0  0  0  0  0  0  0  0  0  0
   -4.5947    1.6506   -0.9340 C   0  0  0  0  0  0  0  0  0  0  0  0
   -3.9661    3.0016   -0.7328 C   0  0  0  0  0  0  0  0  0  0  0  0
   -3.5907    3.2625    0.7038 C   0  0  2  0  0  0  0  0  0  0  0  0
   -2.1538    3.5936    0.8701 C   0  0  0  0  0  0  0  0  0  0  0  0
   -3.9687    2.2179    1.5299 O   0  0  0  0  0  0  0  0  0  0  0  0
   -3.1225    2.0306    2.6089 C   0  0  0  0  0  0  0  0  0  0  0  0
   -1.7748    1.5378    2.0702 C   0  0  0  0  0  0  0  0  0  0  0  0
   -1.3037    2.6063    1.1324 C   0  0  0  0  0  0  0  0  0  0  0  0
    0.0442    2.5626    0.5280 C   0  0  0  0  0  0  0  0  0  0  0  0
    0.0956    1.7655   -0.7510 C   0  0  1  0  0  0  0  0  0  0  0  0
    1.0246    2.3958   -1.7725 C   0  0  0  0  0  0  0  0  0  0  0  0
    2.4330    2.2631   -1.2487 C   0  0  0  0  0  0  0  0  0  0  0  0
    2.5136    2.9831    0.0721 C   0  0  0  0  0  0  0  0  0  0  0  0
    3.8408    2.9384    0.7080 C   0  0  0  0  0  0  0  0  0  0  0  0
    4.8425    2.3166    0.1448 C   0  0  0  0  0  0  0  0  0  0  0  0
    6.1079    2.2972    0.7923 N   0  0  0  0  0  1  0  0  0  0  0  0
    4.6772    1.6353   -1.1532 C   0  0  0  0  0  0  0  0  0  0  0  0
    4.9770    0.1601   -1.0513 C   0  0  0  0  0  0  0  0  0  0  0  0
    6.3486    0.0160   -0.6088 N   0  0  0  0  0  2  0  0  0  0  0  0
    7.2592    0.8791   -1.3363 C   0  0  0  0  0  0  0  0  0  0  0  0
    8.4053    0.0638   -1.8402 C   0  0  0  0  0  0  0  0  0  0  0  0
    9.1984   -0.6135   -0.7721 C   0  0  1  0  0  0  0  0  0  0  0  0
    9.7704    0.2258    0.1363 F   0  0  0  0  0  0  0  0  0  0  0  0
    8.4749   -1.7405   -0.1103 C   0  0  1  0  0  0  0  0  0  0  0  0
    8.0718   -2.8440   -1.0294 C   0  0  0  0  0  0  0  0  0  0  0  0
    9.1129   -2.2065    1.1555 C   0  0  2  0  0  0  0  0  0  0  0  0
    8.2491   -3.3544    1.6943 C   0  0  0  0  0  0  0  0  0  0  0  0
    9.0866   -1.1385    2.2374 C   0  0  0  0  0  0  0  0  0  0  0  0
    9.6801   -1.5906    3.3949 F   0  0  0  0  0  0  0  0  0  0  0  0
  2  1  1  6
  2  3  1  0
  2  4  1  0
  4  5  1  0
  5  6  1  0
  6  7  1  0
  7  8  1  1
  7  9  1  0
  9 10  1  0
 10 11  1  0
 11 12  1  0
 12 13  1  1
 12 14  1  0
 14 15  1  0
 15 16  1  6
 15 17  1  0
 17 18  1  0
 18 19  1  0
 19 20  1  1
 19 21  1  0
 21 22  1  0
 23 22  1  6
 23 24  1  0
 23 25  1  0
 25 26  1  0
 26 27  1  0
 27 28  1  0
 28 29  1  0
 29 30  1  0
 30 31  1  6
 31 32  1  0
 32 33  1  0
 33 34  1  0
 34 35  2  3
 35 36  1  0
 35 37  1  0
 37 38  1  0
 38 39  1  0
 39 40  1  0
 40 41  1  0
 41 42  1  0
 42 43  1  1
 42 44  1  0
 44 45  1  6
 44 46  1  0
 46 47  1  1
 46 48  1  0
 48 49  1  0
 30  3  1  0
 24 28  2  0
M  CHG  2  36   1  39   1
M  RAD  3   9   2  36   2  39   3
M  END
>  <fragInfo>  (1) 
1 2 3 4 5 6 7 8 9 10 11 12 13 14 15 16 17 18 19 20 21 22 23 24 25 26 27 28 29 30
31
32
33
34 35 36
37
38
39
40
41
42 43
44 45
46 47
48 49


>  <torsionInfo>  (1) 
30 31 0 1
31 32 1 2
32 33 2 3
33 34 3 4
35 37 4 5
37 38 5 6
38 39 6 7
39 40 7 8
40 41 8 9
41 42 9 10
42 44 10 11
44 46 11 12
46 48 12 13


>  <atomInfo>  (1) 
1  -0.0624993C 
2  -0.0440052C 
3  -0.0475477C 
4  -0.0506906C 
5  -0.0527880C 
6  -0.0504264C 
7  -0.0411603C 
8  -0.0622342C 
9  -0.0357404C 
10 -0.0496636C 
11 -0.0503693C 
12 -0.0427982C 
13 -0.0624517C 
14 -0.0353975C 
15 0.00422663C 
16 -0.3276997NA
17 -0.0355218C 
18 -0.0255347C 
19 0.05415012C 
20 -0.3931283OA
21 -0.0242258C 
22 -0.0206172C 
23 0.07590620C 
24 -0.0566296C 
25 -0.3738149OA
26 0.05108263C 
27 -0.0082509C 
28 -0.0690850C 
29 -0.0289874C 
30 -0.0374289C 
31 -0.0498328C 
32 -0.0493118C 
33 -0.0285271C 
34 -0.0076706C 
35 0.31473208C 
36 0.46773001N 
37 0.10155984C 
38 0.19332054C 
39 0.05825830N 
40 0.18619019C 
41 0.03905711C 
42 0.10877557C 
43 -0.2469365F 
44 -0.0074958C 
45 -0.0593758C 
46 -0.0103166C 
47 -0.0596483C 
48 0.09230711C 
49 -0.2508012F 


$$$$
