
     RDKit          3D

 25 26  0  0  0  0  0  0  0  0999 V2000
   -7.2031   -1.0683    0.8232 C   0  0  0  0  0  0  0  0  0  0  0  0
   -5.9949   -0.3872    1.0726 O   0  0  0  0  0  0  0  0  0  0  0  0
   -4.9814   -1.0031    1.7326 C   0  0  0  0  0  0  0  0  0  0  0  0
   -3.7276   -0.9725    1.5284 C   0  0  0  0  0  0  0  0  0  0  0  0
   -2.9226   -0.2962    0.5531 C   0  0  0  0  0  0  0  0  0  0  0  0
   -1.5870   -0.2665    0.3284 C   0  0  0  0  0  0  0  0  0  0  0  0
   -0.4481   -0.9167    0.9989 C   0  0  0  0  0  0  0  0  0  0  0  0
    0.7659   -0.6798    0.5270 C   0  0  0  0  0  0  0  0  0  0  0  0
    1.9361   -1.2823    1.1322 C   0  0  0  0  0  0  0  0  0  0  0  0
    1.8131   -2.0395    2.1156 O   0  0  0  0  0  0  0  0  0  0  0  0
    3.1804   -1.0126    0.6141 O   0  0  0  0  0  0  0  0  0  0  0  0
    4.3565   -1.5452    1.1294 C   0  0  0  0  0  0  0  0  0  0  0  0
    5.5321   -1.2837    0.6314 C   0  0  0  0  0  0  0  0  0  0  0  0
    5.7248   -0.4077   -0.5132 C   0  0  0  0  0  0  0  0  0  0  0  0
    4.6891    0.2088   -1.1551 C   0  0  0  0  0  0  0  0  0  0  0  0
    4.9530    1.0209   -2.2281 C   0  0  0  0  0  0  0  0  0  0  0  0
    6.2275    1.2293   -2.6721 C   0  0  0  0  0  0  0  0  0  0  0  0
    7.2961    0.6137   -2.0359 C   0  0  0  0  0  0  0  0  0  0  0  0
    7.0120   -0.2011   -0.9567 C   0  0  0  0  0  0  0  0  0  0  0  0
   -1.8367    0.6258   -0.7760 C   0  0  0  0  0  0  0  0  0  0  0  0
   -3.1599    0.6033   -0.5606 C   0  0  0  0  0  0  0  0  0  0  0  0
   -4.2815    1.2815   -1.2804 C   0  0  0  0  0  0  0  0  0  0  0  0
   -4.9554    2.2603   -0.3467 C   0  0  0  0  0  0  0  0  0  0  0  0
   -6.0612    2.9085   -1.1054 C   0  0  0  0  0  0  0  0  0  0  0  0
   -6.3271    2.6103   -2.3735 C   0  0  0  0  0  0  0  0  0  0  0  0
  1  2  1  0
  2  3  1  0
  3  4  2  3
  4  5  1  0
  5  6  2  0
  6  7  1  0
  7  8  2  3
  8  9  1  0
  9 10  2  0
  9 11  1  0
 11 12  1  0
 12 13  2  3
 13 14  1  0
 14 15  2  0
 15 16  1  0
 16 17  2  0
 17 18  1  0
 18 19  2  0
  6 20  1  0
 20 21  2  0
 21 22  1  0
 22 23  1  0
 23 24  1  0
 24 25  2  0
 21  5  1  0
 19 14  1  0
M  END
>  <fragInfo>  (1) 
14 15 16 17 18 19
1 2
3 4
5 6 20 21
7 8
9 10
11
12 13
22
23
24 25


>  <torsionInfo>  (1) 
13 14 7 0
2 3 1 2
4 5 2 3
6 7 3 4
21 22 3 8
8 9 4 5
9 11 5 6
11 12 6 7
22 23 8 9
23 24 9 10


>  <atomInfo>  (1) 
1  0.07660110C 
2  -0.5043448OA
3  0.08303987C 
4  -0.0194058C 
5  -0.0120989C 
6  -0.0174568C 
7  -0.0471256C 
8  0.02427896C 
9  0.33507914C 
10 -0.2464770OA
11 -0.4313105OA
12 0.09536818C 
13 -0.0194805C 
14 -0.0225956A 
15 -0.0548719A 
16 -0.0616706A 
17 -0.0622260A 
18 -0.0616706A 
19 -0.0548719A 
20 -0.0505124C 
21 -0.0391257C 
22 -0.0237851C 
23 -0.0312531C 
24 -0.0914238C 
25 -0.1030714C 


$$$$
