
     RDKit          3D

 60 60  0  0  0  0  0  0  0  0999 V2000
   -9.7146    3.0034    1.1688 C   0  0  0  0  0  0  0  0  0  0  0  0
   -8.6628    3.0430    0.1233 C   0  0  2  0  0  0  0  0  0  0  0  0
   -8.6740    1.8779   -0.8178 C   0  0  0  0  0  0  0  0  0  0  0  0
   -8.4746    0.5498   -0.1348 C   0  0  0  0  0  0  0  0  0  0  0  0
   -8.4458   -0.5839   -1.1176 C   0  0  0  0  0  0  0  0  0  0  0  0
   -9.7453   -0.6604   -1.8654 C   0  0  1  0  0  0  0  0  0  0  0  0
   -9.6744   -1.7196   -2.8062 O   0  0  0  0  0  0  0  0  0  0  0  0
  -10.8286   -1.0422   -0.8345 C   0  0  1  0  0  0  0  0  0  0  0  0
  -10.4258   -2.2508   -0.2345 O   0  0  0  0  0  0  0  0  0  0  0  0
  -10.8284    0.0142    0.2276 C   0  0  0  0  0  3  0  0  0  0  0  0
  -11.8064   -0.2405    1.2501 N   0  0  0  0  0  0  0  0  0  0  0  0
   -7.2674    3.2456    0.6806 C   0  0  0  0  0  0  0  0  0  0  0  0
   -6.9685    2.1112    1.6016 C   0  0  0  0  0  0  0  0  0  0  0  0
   -5.5960    2.2025    2.2232 C   0  0  2  0  0  0  0  0  0  0  0  0
   -5.4003    3.4467    3.0365 C   0  0  0  0  0  2  0  0  0  0  0  0
   -4.4963    2.1428    1.1929 C   0  0  2  0  0  0  0  0  0  0  0  0
   -4.8162    2.8456    0.0320 O   0  0  0  0  0  0  0  0  0  0  0  0
   -3.7021    2.6965   -0.8231 C   0  0  0  0  0  3  0  0  0  0  0  0
   -3.8482    3.7091   -1.9222 C   0  0  0  0  0  2  0  0  0  0  0  0
   -5.2865    1.0056    3.0886 C   0  0  0  0  0  0  0  0  0  0  0  0
   -4.9142   -0.0617    2.0915 C   0  0  0  0  0  0  0  0  0  0  0  0
   -4.4976    0.6724    0.8277 C   0  0  2  0  0  0  0  0  0  0  0  0
   -3.1419    0.3282    0.6208 O   0  0  0  0  0  0  0  0  0  0  0  0
   -3.0803   -0.9290    0.3032 O   0  0  0  0  0  0  0  0  0  0  0  0
   -1.7325   -1.2628    0.1676 C   0  0  1  0  0  0  0  0  0  0  0  0
   -1.5394   -2.7081   -0.2020 C   0  0  0  0  0  3  0  0  0  0  0  0
   -2.1748   -3.6185    0.8234 C   0  0  0  0  0  0  0  0  0  0  0  0
   -1.9368   -5.0504    0.3801 C   0  0  0  0  0  3  0  0  0  0  0  0
   -2.5544   -5.3146   -0.9862 C   0  0  0  0  0  3  0  0  0  0  0  0
   -4.0446   -5.4791   -0.7913 C   0  0  0  0  0  3  0  0  0  0  0  0
   -4.8113   -4.2722   -1.2811 C   0  0  0  0  0  0  0  0  0  0  0  0
   -4.5754   -4.0279   -2.7602 C   0  0  0  0  0  0  0  0  0  0  0  0
   -1.0685   -0.4247   -0.9076 C   0  0  2  0  0  0  0  0  0  0  0  0
   -1.7916   -0.6892   -2.2238 C   0  0  0  0  0  2  0  0  0  0  0  0
    0.3652   -0.8859   -1.0289 C   0  0  0  0  0  0  0  0  0  0  0  0
    1.0273   -0.6770    0.3179 C   0  0  2  0  0  0  0  0  0  0  0  0
    0.9672    0.8102    0.6785 C   0  0  0  0  0  0  0  0  0  0  0  0
    2.5179   -0.9767    0.1123 C   0  0  0  0  0  0  0  0  0  0  0  0
    3.0083    0.0012   -0.9310 C   0  0  2  0  0  0  0  0  0  0  0  0
    2.2788   -0.1431   -2.2340 C   0  0  0  0  0  2  0  0  0  0  0  0
    4.4988   -0.1976   -1.0919 C   0  0  0  0  0  0  0  0  0  0  0  0
    5.1444    0.0696    0.2544 C   0  0  1  0  0  0  0  0  0  0  0  0
    4.6115   -0.8812    1.3052 C   0  0  0  0  0  3  0  0  0  0  0  0
    5.2632   -0.5963    2.6194 C   0  0  0  0  0  2  0  0  0  0  0  0
    6.6235   -0.2048    0.1013 C   0  0  1  0  0  0  0  0  0  0  0  0
    7.2783    0.0608    1.4466 C   0  0  0  0  0  2  0  0  0  0  0  0
    6.8121   -1.6666   -0.2445 C   0  0  0  0  0  3  0  0  0  0  0  0
    8.2507   -2.0336   -0.4163 C   0  0  0  0  0  3  0  0  0  0  0  0
    9.1973   -0.8807   -0.3326 C   0  0  0  0  0  0  0  0  0  0  0  0
    8.8814    0.1370   -1.4107 C   0  0  0  0  0  0  0  0  0  0  0  0
    9.8557    1.3045   -1.3102 C   0  0  1  0  0  0  0  0  0  0  0  0
    9.7512    1.9757    0.0353 C   0  0  0  0  0  2  0  0  0  0  0  0
   11.2602    0.8447   -1.6510 C   0  0  0  0  0  0  0  0  0  0  0  0
   11.7190   -0.1376   -0.8055 O   0  0  0  0  0  0  0  0  0  0  0  0
   11.8520    0.3500    0.5209 C   0  0  1  0  0  0  0  0  0  0  0  0
   12.2985   -0.7926    1.2560 O   0  0  0  0  0  0  0  0  0  0  0  0
   13.0607    1.2953    0.5676 C   0  0  0  0  0  3  0  0  0  0  0  0
   12.9923    2.3650   -0.4796 C   0  0  0  0  0  3  0  0  0  0  0  0
   12.9212    3.7298    0.1518 C   0  0  0  0  0  3  0  0  0  0  0  0
   14.0885    4.5714   -0.3266 C   0  0  0  0  0  2  0  0  0  0  0  0
  2  1  1  1
  2  3  1  0
  3  4  1  0
  4  5  1  0
  5  6  1  0
  6  7  1  6
  6  8  1  0
  8  9  1  1
  8 10  1  0
 10 11  1  0
  2 12  1  0
 12 13  1  0
 13 14  1  0
 14 15  1  1
 14 16  1  0
 16 17  1  6
 17 18  1  0
 18 19  1  0
 14 20  1  0
 20 21  1  0
 21 22  1  0
 22 23  1  1
 23 24  1  0
 24 25  1  0
 25 26  1  6
 26 27  1  0
 27 28  1  0
 28 29  1  0
 29 30  1  0
 30 31  1  0
 31 32  1  0
 25 33  1  0
 33 34  1  6
 33 35  1  0
 35 36  1  0
 36 37  1  6
 36 38  1  0
 38 39  1  0
 39 40  1  6
 39 41  1  0
 42 41  1  6
 42 43  1  0
 43 44  1  0
 42 45  1  0
 45 46  1  1
 45 47  1  0
 47 48  1  0
 48 49  1  0
 49 50  1  0
 50 51  1  0
 51 52  1  1
 51 53  1  0
 53 54  1  0
 54 55  1  0
 55 56  1  1
 55 57  1  0
 57 58  1  0
 58 59  1  0
 59 60  1  0
 22 16  1  0
M  RAD  8  10   2  15   3  18   2  19   3  26   2  28   2  29   2  30   2
M  RAD  8  34   3  40   3  43   2  44   3  46   3  47   2  48   2  52   3
M  RAD  4  57   2  58   2  59   2  60   3
M  END
>  <fragInfo>  (1) 
14 15 16 20 21 22
1 2
3
4
5
6 7
8 9
10 11
12
13
17
18 19
23
24
25
26
27
28
29
30
31 32
33 34
35
36 37
38
39 40
41
42
43 44
45 46
47
48
49
50
51 52
53
54
55 56
57
58
59 60


>  <torsionInfo>  (1) 
13 14 9 0
16 17 0 10
22 23 0 12
2 3 1 2
2 12 1 8
3 4 2 3
4 5 3 4
5 6 4 5
6 8 5 6
8 10 6 7
12 13 8 9
17 18 10 11
23 24 12 13
24 25 13 14
25 26 14 15
25 33 14 21
26 27 15 16
27 28 16 17
28 29 17 18
29 30 18 19
30 31 19 20
33 35 21 22
35 36 22 23
36 38 23 24
38 39 24 25
39 41 25 26
41 42 26 27
42 43 27 28
42 45 27 29
45 47 29 30
47 48 30 31
48 49 31 32
49 50 32 33
50 51 33 34
51 53 34 35
53 54 35 36
54 55 36 37
55 57 37 38
57 58 38 39
58 59 39 40


>  <atomInfo>  (1) 
1  -0.0625093C 
2  -0.0442562C 
3  -0.0506142C 
4  -0.0504923C 
5  -0.0243756C 
6  0.08146343C 
7  -0.3903699OA
8  0.09651177C 
9  -0.3887407OA
10 0.05083708C 
11 -0.3240299NA
12 -0.0500739C 
13 -0.0444652C 
14 0.00279679C 
15 -0.0256300C 
16 0.09321513C 
17 -0.3685390OA
18 0.08803068C 
19 -0.0008278C 
20 -0.0420305C 
21 -0.0202869C 
22 0.11961295C 
23 -0.2303030OA
24 -0.2324003OA
25 0.09923596C 
26 -0.0057820C 
27 -0.0440551C 
28 -0.0345114C 
29 -0.0317986C 
30 -0.0351685C 
31 -0.0527513C 
32 -0.0650972C 
33 -0.0078497C 
34 -0.0289867C 
35 -0.0449475C 
36 -0.0436339C 
37 -0.0624873C 
38 -0.0475455C 
39 -0.0374761C 
40 -0.0317794C 
41 -0.0467226C 
42 -0.0343256C 
43 -0.0314722C 
44 -0.0311974C 
45 -0.0314727C 
46 -0.0311974C 
47 -0.0315039C 
48 -0.0348734C 
49 -0.0495271C 
50 -0.0476742C 
51 -0.0142992C 
52 -0.0294303C 
53 0.05284395C 
54 -0.3522783OA
55 0.15760519C 
56 -0.3677134OA
57 0.02110058C 
58 -0.0262736C 
59 -0.0309991C 
60 -0.0311832C 


$$$$
