
     RDKit          3D

 31 31  0  0  0  0  0  0  0  0999 V2000
    4.6973    1.1425   -1.1843 C   0  0  0  0  0  0  0  0  0  0  0  0
    6.1759    1.3028   -1.0329 C   0  0  0  0  0  0  0  0  0  0  0  0
    6.4375    2.6263   -0.3297 C   0  0  0  0  0  0  0  0  0  0  0  0
    6.8523    0.1781   -0.3159 C   0  0  0  0  0  0  0  0  0  0  0  0
    6.3611   -0.0372    1.0806 C   0  0  0  0  0  0  0  0  0  0  0  0
    4.9036   -0.3606    1.1800 C   0  0  0  0  0  0  0  0  0  0  0  0
    4.5642   -1.6367    0.4191 C   0  0  1  0  0  0  0  0  0  0  0  0
    5.3672   -2.7964    1.0070 C   0  0  0  0  0  0  0  0  0  0  0  0
    3.1137   -1.9896    0.5984 C   0  0  0  0  0  3  0  0  0  0  0  0
    2.2656   -0.8656    0.0722 C   0  0  0  0  0  3  0  0  0  0  0  0
    1.2516   -1.3493   -0.9470 C   0  0  0  0  0  0  0  0  0  0  0  0
    0.3701   -2.3534   -0.2621 C   0  0  1  0  0  0  0  0  0  0  0  0
    1.1899   -3.5133    0.2438 C   0  0  0  0  0  0  0  0  0  0  0  0
   -0.5162   -1.7500    0.8067 C   0  0  0  0  0  0  0  0  0  0  0  0
   -1.3977   -0.7093    0.1200 C   0  0  2  0  0  0  0  0  0  0  0  0
   -2.1950   -1.4428   -0.9265 C   0  0  0  0  0  0  0  0  0  0  0  0
   -0.5156    0.3578   -0.4179 C   0  0  0  0  0  0  0  0  0  0  0  0
   -1.0554    1.7451   -0.2840 C   0  0  0  0  0  0  0  0  0  0  0  0
   -1.5074    2.1028    1.0966 C   0  0  2  0  0  0  0  0  0  0  0  0
   -2.0033    0.9298    1.8942 C   0  0  0  0  0  0  0  0  0  0  0  0
   -2.5345    3.0473    1.0337 O   0  0  0  0  0  0  0  0  0  0  0  0
   -3.6300    2.5978    0.3180 C   0  0  0  0  0  0  0  0  0  0  0  0
   -3.5006    2.9968   -1.1535 C   0  0  2  0  0  0  0  0  0  0  0  0
   -3.5010    4.5115   -1.1881 C   0  0  0  0  0  0  0  0  0  0  0  0
   -4.6074    2.5418   -1.8685 O   0  0  0  0  0  0  0  0  0  0  0  0
   -4.8601    1.1938   -1.6128 C   0  0  0  0  0  0  0  0  0  0  0  0
   -3.5606    0.5813   -1.1556 C   0  0  0  0  0  0  0  0  0  0  0  0
   -3.5689   -0.9056   -1.1450 C   0  0  2  0  0  0  0  0  0  0  0  0
   -4.4838   -1.5092   -0.2166 N   0  0  0  0  0  0  0  0  0  0  0  0
   -4.4882   -2.9482   -0.5174 C   0  0  0  0  0  0  0  0  0  0  0  0
   -5.6241   -3.6884    0.6358 Cl  0  0  0  0  0  0  0  0  0  0  0  0
  1  2  1  0
  2  3  1  0
  2  4  1  0
  4  5  1  0
  5  6  1  0
  6  7  1  0
  7  8  1  1
  7  9  1  0
  9 10  1  0
 10 11  1  0
 11 12  1  0
 12 13  1  1
 12 14  1  0
 15 14  1  6
 15 16  1  0
 15 17  1  0
 17 18  1  0
 18 19  1  0
 19 20  1  6
 19 21  1  0
 21 22  1  0
 22 23  1  0
 23 24  1  1
 23 25  1  0
 25 26  1  0
 26 27  1  0
 27 28  1  0
 28 29  1  1
 29 30  1  0
 30 31  1  0
 28 16  1  0
M  RAD  2   9   2  10   2
M  END
>  <fragInfo>  (1) 
15 16 17 18 19 20 21 22 23 24 25 26 27 28
1 2 3
4
5
6
7 8
9
10
11
12 13
14
29
30 31


>  <torsionInfo>  (1) 
14 15 10 0
28 29 0 11
2 4 1 2
4 5 2 3
5 6 3 4
6 7 4 5
7 9 5 6
9 10 6 7
10 11 7 8
11 12 8 9
12 14 9 10
29 30 11 12


>  <atomInfo>  (1) 
1  -0.0627736C 
2  -0.0471324C 
3  -0.0627736C 
4  -0.0509643C 
5  -0.0527981C 
6  -0.0504160C 
7  -0.0408749C 
8  -0.0622236C 
9  -0.0323486C 
10 -0.0346543C 
11 -0.0472827C 
12 -0.0437312C 
13 -0.0624889C 
14 -0.0477838C 
15 -0.0395991C 
16 -0.0347738C 
17 -0.0479227C 
18 -0.0267405C 
19 0.05479792C 
20 -0.0386770C 
21 -0.3758280OA
22 0.07291502C 
23 0.07800824C 
24 -0.0363929C 
25 -0.3760522OA
26 0.04852081C 
27 -0.0140412C 
28 0.01026229C 
29 -0.3009722NA
30 0.07150488C 
31 -0.1097485Cl


$$$$
