
     RDKit          3D

 23 22  0  0  0  0  0  0  0  0999 V2000
    6.2859    0.7226   -0.9984 C   0  0  0  0  0  0  0  0  0  0  0  0
    6.2630    1.9068   -0.0769 C   0  0  0  0  0  0  0  0  0  0  0  0
    6.6202    3.2105   -0.7188 C   0  0  0  0  0  0  0  0  0  0  0  0
    5.0978    1.9422    0.8591 C   0  0  0  0  0  0  0  0  0  0  0  0
    3.8234    1.9852    0.0363 C   0  0  0  0  0  0  0  0  0  0  0  0
    3.8190    0.7390   -0.8231 C   0  0  0  0  0  0  0  0  0  0  0  0
    3.8811   -0.5242    0.0386 C   0  0  1  0  0  0  0  0  0  0  0  0
    2.6446   -0.5107    0.9529 C   0  0  0  0  0  0  0  0  0  0  0  0
    3.8140   -1.7352   -0.8699 C   0  0  0  0  0  3  0  0  0  0  0  0
    2.4690   -1.7725   -1.5769 C   0  0  0  0  0  0  0  0  0  0  0  0
    1.4016   -1.9241   -0.5026 C   0  0  0  0  0  0  0  0  0  0  0  0
    0.0108   -1.9929   -1.0596 C   0  0  0  0  0  3  0  0  0  0  0  0
   -0.9510   -2.1885    0.0687 C   0  0  0  0  0  3  0  0  0  0  0  0
   -0.4640   -1.7571    1.4127 C   0  0  0  0  0  2  0  0  0  0  0  0
   -2.3401   -1.8167   -0.2781 C   0  0  0  0  0  0  0  0  0  0  0  0
   -2.6225   -0.4605   -0.7102 C   0  0  1  0  0  0  0  0  0  0  0  0
   -2.0428    0.1032   -1.8397 N   0  0  0  0  0  0  0  0  0  0  0  0
   -3.8468    0.1199   -0.1224 C   0  0  0  0  0  0  0  0  0  0  0  0
   -5.0658   -0.6931   -0.4666 C   0  0  0  0  0  0  0  0  0  0  0  0
   -6.3237   -0.1095    0.1157 C   0  0  0  0  0  0  0  0  0  0  0  0
   -6.6215    1.2692   -0.3681 C   0  0  0  0  0  0  0  0  0  0  0  0
   -7.8714    1.7366    0.2916 C   0  0  0  0  0  0  0  0  0  0  0  0
   -7.9806    1.7497    1.5307 O   0  0  0  0  0  0  0  0  0  0  0  0
  1  2  1  0
  2  3  1  0
  2  4  1  0
  4  5  1  0
  5  6  1  0
  6  7  1  0
  7  8  1  1
  7  9  1  0
  9 10  1  0
 10 11  1  0
 11 12  1  0
 12 13  1  0
 13 14  1  0
 13 15  1  0
 15 16  1  0
 16 17  1  6
 16 18  1  0
 18 19  1  0
 19 20  1  0
 20 21  1  0
 21 22  1  0
 22 23  2  0
M  RAD  4   9   2  12   2  13   2  14   3
M  END
>  <fragInfo>  (1) 
1 2 3
4
5
6
7 8
9
10
11
12
13 14
15
16 17
18
19
20
21
22 23


>  <torsionInfo>  (1) 
2 4 0 1
4 5 1 2
5 6 2 3
6 7 3 4
7 9 4 5
9 10 5 6
10 11 6 7
11 12 7 8
12 13 8 9
13 15 9 10
15 16 10 11
16 18 11 12
18 19 12 13
19 20 13 14
20 21 14 15
21 22 15 16


>  <atomInfo>  (1) 
1  -0.0627736C 
2  -0.0471324C 
3  -0.0627736C 
4  -0.0509643C 
5  -0.0527983C 
6  -0.0504266C 
7  -0.0411603C 
8  -0.0622342C 
9  -0.0357397C 
10 -0.0496229C 
11 -0.0493140C 
12 -0.0314348C 
13 -0.0154750C 
14 -0.0274608C 
15 -0.0311732C 
16 0.00444888C 
17 -0.3276898NA
18 -0.0379542C 
19 -0.0514210C 
20 -0.0465992C 
21 0.00300953C 
22 0.11949020C 
23 -0.3034029OA


$$$$
