
     RDKit          3D

 25 28  0  0  0  0  0  0  0  0999 V2000
   -0.4608   -0.0837   -0.4779 C   0  0  0  0  0  0  0  0  0  0  0  0
   -1.1064    0.9074   -1.3577 C   0  0  0  0  0  3  0  0  0  0  0  0
   -2.3237    0.3972   -2.1222 C   0  0  0  0  0  0  0  0  0  0  0  0
   -3.5661    0.4710   -1.2679 C   0  0  2  0  0  0  0  0  0  0  0  0
   -4.3233    1.5898   -1.4341 O   0  0  0  0  0  0  0  0  0  0  0  0
   -3.5603    2.6568   -1.4929 O   0  0  0  0  0  0  0  0  0  0  0  0
   -2.7068    2.6016   -0.3605 C   0  0  0  0  0  0  0  0  0  0  0  0
   -1.2857    2.2602   -0.7388 C   0  0  0  0  0  3  0  0  0  0  0  0
   -2.9901    0.4133    0.1791 C   0  0  0  0  0  0  0  0  0  0  0  0
   -2.6167   -0.9065    0.3102 O   0  0  0  0  0  0  0  0  0  0  0  0
   -1.2392   -1.1139    0.1975 C   0  0  2  0  0  0  0  0  0  0  0  0
   -0.7985   -1.6147    1.5279 C   0  0  2  0  0  0  0  0  0  0  0  0
   -1.1923    0.6248    2.0686 C   0  0  0  0  0  0  0  0  0  0  0  0
   -0.4268    0.1799    1.8543 C   0  0  0  0  0  0  0  0  0  0  0  0
    0.0207   -0.0906    1.7269 C   0  0  0  0  0  0  0  0  0  0  0  0
    0.9751   -0.6896    1.4598 C   0  0  1  0  0  0  0  0  0  0  0  0
    1.4996   -1.7086    2.6028 C   0  0  0  0  0  0  0  0  0  0  0  0
    2.9683   -1.6832    2.0556 C   0  0  0  0  0  0  0  0  0  0  0  0
    2.5961   -1.9105    0.5802 C   0  0  1  0  0  0  0  0  0  0  0  0
    1.3476   -1.4560    0.3462 O   0  0  0  0  0  0  0  0  0  0  0  0
    3.7039   -1.5758   -0.2987 C   0  0  0  0  0  3  0  0  0  0  0  0
    3.2919   -1.6147   -1.7817 C   0  0  0  0  0  3  0  0  0  0  0  0
    4.0779   -0.5074   -2.5135 C   0  0  0  0  0  0  0  0  0  0  0  0
    3.7069    0.8404   -1.8915 C   0  0  0  0  0  0  0  0  0  0  0  0
    4.4089    2.0128   -2.4973 C   0  0  0  0  0  2  0  0  0  0  0  0
  1  2  1  0
  2  3  1  0
  3  4  1  0
  4  5  1  0
  5  6  1  0
  6  7  1  0
  7  8  1  0
  4  9  1  1
  9 10  1  0
 10 11  1  0
 11 12  1  0
 12 13  1  1
 13 14  1  0
 14 15  3  0
 16 15  1  6
 16 17  1  0
 17 18  1  0
 18 19  1  0
 19 20  1  0
 19 21  1  6
 21 22  1  0
 22 23  1  0
 23 24  1  0
 24 25  1  0
 11  1  1  1
  8  2  1  0
 16 12  1  0
 20 16  1  0
M  RAD  5   2   2   8   2  21   2  22   2  25   3
M  END
>  <fragInfo>  (1) 
1 2 3 4 5 6 7 8 9 10 11
12 13 14 15 16 17 18 19 20
21
22
23
24 25


>  <torsionInfo>  (1) 
11 12 0 1
19 21 1 2
21 22 2 3
22 23 3 4
23 24 4 5


>  <atomInfo>  (1) 
1  -0.0195684C 
2  -0.0128755C 
3  -0.0145396C 
4  0.11676987C 
5  -0.2309079OA
6  -0.2360403OA
7  0.08594632C 
8  -0.0025540C 
9  0.07643925C 
10 -0.3748985OA
11 0.06563368C 
12 0.03654847C 
13 0.01804780C 
14 -0.0997076C 
15 -0.0676183C 
16 0.13483170C 
17 -0.0095006C 
18 -0.0226267C 
19 0.06315659C 
20 -0.3583866OA
21 -0.0062123C 
22 -0.0325115C 
23 -0.0495131C 
24 -0.0496111C 
25 -0.0351814C 


$$$$
