
     RDKit          3D

 23 24  0  0  0  0  0  0  0  0999 V2000
    1.4395    1.0917    1.4803 C   0  0  0  0  0  0  0  0  0  0  0  0
    0.4749    1.7860    0.6718 O   0  0  0  0  0  0  0  0  0  0  0  0
   -0.7095    1.0657    0.5039 C   0  0  0  0  0  0  0  0  0  0  0  0
   -1.7131    1.2174    1.4513 C   0  0  0  0  0  0  0  0  0  0  0  0
   -1.4554    2.1467    2.6001 C   0  0  0  0  0  0  0  0  0  0  0  0
   -2.8789    0.5180    1.2967 C   0  0  0  0  0  0  0  0  0  0  0  0
   -3.0423   -0.3184    0.2170 C   0  0  0  0  0  0  0  0  0  0  0  0
   -2.0403   -0.4569   -0.7093 C   0  0  0  0  0  0  0  0  0  0  0  0
   -2.2125   -1.3017   -1.7921 O   0  0  0  0  0  0  0  0  0  0  0  0
   -0.8227    0.2470   -0.5864 C   0  0  0  0  0  0  0  0  0  0  0  0
    0.1331    0.0570   -1.6206 C   0  0  0  0  0  0  0  0  0  0  0  0
    1.4692    0.5413   -1.6346 C   0  0  0  0  0  0  0  0  0  0  0  0
    2.5618   -0.2319   -1.8749 C   0  0  0  0  0  0  0  0  0  0  0  0
    2.1991   -1.6814   -2.1194 C   0  0  0  0  0  0  0  0  0  0  0  0
    3.9119    0.2375   -1.9590 C   0  0  0  0  0  0  0  0  0  0  0  0
    5.0289   -0.2693   -1.2516 C   0  0  0  0  0  0  0  0  0  0  0  0
    5.1783   -0.2881    0.1797 C   0  0  0  0  0  0  0  0  0  0  0  0
    4.3890    0.0891    1.0717 O   0  0  0  0  0  0  0  0  0  0  0  0
    6.3903   -0.8057    0.6920 O   0  0  0  0  0  0  0  0  0  0  0  0
   -4.3866   -0.9205    0.3173 C   0  0  0  0  0  0  0  0  0  0  0  0
   -4.8521   -1.7355   -0.5146 O   0  0  0  0  0  0  0  0  0  0  0  0
   -4.9616   -0.4157    1.4501 O   0  0  0  0  0  0  0  0  0  0  0  0
   -4.1009    0.4838    2.1303 C   0  0  0  0  0  0  0  0  0  0  0  0
  1  2  1  0
  2  3  1  0
  3  4  2  0
  4  5  1  0
  4  6  1  0
  6  7  2  0
  7  8  1  0
  8  9  1  0
  8 10  2  0
 10 11  1  0
 11 12  1  0
 12 13  2  0
 13 14  1  0
 13 15  1  0
 15 16  1  0
 16 17  1  0
 17 18  2  0
 17 19  1  0
  7 20  1  0
 20 21  2  0
 20 22  1  0
 22 23  1  0
 10  3  1  0
 23  6  1  0
M  END
>  <fragInfo>  (1) 
3 4 5 6 7 8 9 10 20 21 22 23
1 2
11
12 13 14
15
16
17 18 19


>  <torsionInfo>  (1) 
2 3 1 0
10 11 0 2
11 12 2 3
13 15 3 4
15 16 4 5
16 17 5 6


>  <atomInfo>  (1) 
1  0.07754153C 
2  -0.4960281OA
3  0.12892642A 
4  -0.0009492A 
5  -0.0356508C 
6  0.01432606A 
7  0.10876455A 
8  0.13726854A 
9  -0.5065900OA
10 0.04082358A 
11 -0.0020844C 
12 -0.0809081C 
13 -0.0763997C 
14 -0.0439076C 
15 -0.0217887C 
16 0.04902515C 
17 0.30316532C 
18 -0.2524724OA
19 -0.4812220OA
20 0.34219270C 
21 -0.2460219OA
22 -0.4570706OA
23 0.11813492C 


$$$$
