
     RDKit          3D

 73 77  0  0  0  0  0  0  0  0999 V2000
    3.1591   -1.9226   -0.1705 C   0  0  1  0  0  0  0  0  0  0  0  0
    3.8606   -3.2641   -0.1104 C   0  0  1  0  0  0  0  0  0  0  0  0
    3.1228   -4.3417   -0.8358 C   0  0  0  0  0  0  0  0  0  0  0  0
    5.2001   -3.0730   -0.8193 C   0  0  0  0  0  0  0  0  0  0  0  0
    6.3371   -3.6507   -0.0206 C   0  0  0  0  0  0  0  0  0  0  0  0
    7.5412   -2.7481   -0.2325 C   0  0  0  0  0  0  0  0  0  0  0  0
    7.4374   -1.6228    0.7598 C   0  0  1  0  0  0  0  0  0  0  0  0
    8.3678   -1.8291    1.9141 C   0  0  0  0  0  0  0  0  0  0  0  0
    7.5718   -0.2651    0.1277 C   0  0  0  0  0  3  0  0  0  0  0  0
    7.3684    0.7721    1.1998 C   0  0  0  0  0  0  0  0  0  0  0  0
    6.7184    2.0250    0.7109 C   0  0  0  0  0  0  0  0  0  0  0  0
    5.9014    2.7171    1.7947 C   0  0  2  0  0  0  0  0  0  0  0  0
    5.8930    1.8727    3.0359 C   0  0  0  0  0  2  0  0  0  0  0  0
    4.5036    3.0174    1.3599 C   0  0  0  0  0  3  0  0  0  0  0  0
    3.5279    2.2978    2.2581 C   0  0  0  0  0  0  0  0  0  0  0  0
    2.0971    2.6735    1.9924 C   0  0  0  0  0  0  0  0  0  0  0  0
    1.3631    1.5773    1.2360 C   0  0  1  0  0  0  0  0  0  0  0  0
    0.6246    2.2279    0.0873 C   0  0  0  0  0  0  0  0  0  0  0  0
    1.0343    3.6756   -0.0865 C   0  0  0  0  0  0  0  0  0  0  0  0
   -0.1698    4.5470    0.2135 C   0  0  1  0  0  0  0  0  0  0  0  0
    0.2355    5.8581    0.4831 O   0  0  0  0  0  0  0  0  0  0  0  0
   -1.1770    4.4915   -0.9113 C   0  0  2  0  0  0  0  0  0  0  0  0
   -1.5817    5.8660   -1.3820 C   0  0  2  0  0  0  0  0  0  0  0  0
   -0.4424    6.6834   -1.8962 C   0  0  0  0  0  0  0  0  0  0  0  0
   -2.3852    6.5366   -0.4713 O   0  0  0  0  0  0  0  0  0  0  0  0
   -2.6907    7.7759   -1.0076 C   0  0  0  0  0  2  0  0  0  0  0  0
    2.3335    0.6418    0.6583 C   0  0  0  0  0  0  0  0  0  0  0  0
    3.3649   -0.0962    1.5717 C   0  0  0  0  0  0  0  0  0  0  0  0
    4.0962   -0.9168    0.4600 C   0  0  2  0  0  0  0  0  0  0  0  0
    4.1205    0.2539   -0.5935 C   0  0  0  0  0  0  0  0  0  0  0  0
    2.5505    0.2483   -0.5171 C   0  0  0  0  0  0  0  0  0  0  0  0
    2.0105   -0.3121   -1.7209 C   0  0  0  0  0  0  0  0  0  0  0  0
    2.8143   -1.7112   -1.6366 C   0  0  2  0  0  0  0  0  0  0  0  0
    1.7246   -2.7161   -1.9485 C   0  0  0  0  0  0  0  0  0  0  0  0
    0.3803   -2.2250   -1.4519 C   0  0  1  0  0  0  0  0  0  0  0  0
   -0.5224   -2.0960   -2.6447 C   0  0  0  0  0  0  0  0  0  0  0  0
   -0.1851   -3.3085   -0.5628 C   0  0  0  0  0  0  0  0  0  0  0  0
   -0.7070   -2.7997    0.7394 C   0  0  0  0  0  0  0  0  0  0  0  0
   -0.9809   -4.0090    1.6270 C   0  0  1  0  0  0  0  0  0  0  0  0
   -0.1400   -4.0748    2.7112 O   0  0  0  0  0  0  0  0  0  0  0  0
   -2.4295   -4.1739    1.9472 C   0  0  1  0  0  0  0  0  0  0  0  0
   -2.7000   -5.6717    2.1252 C   0  0  0  0  0  2  0  0  0  0  0  0
   -2.7198   -3.4513    3.2368 C   0  0  2  0  0  0  0  0  0  0  0  0
   -2.8341   -4.4018    4.3986 C   0  0  0  0  0  0  0  0  0  0  0  0
   -3.9494   -5.3646    4.1303 C   0  0  0  0  0  0  0  0  0  0  0  0
   -3.9817   -2.6337    3.0429 C   0  0  0  0  0  3  0  0  0  0  0  0
   -3.7425   -1.2976    3.7210 C   0  0  0  0  0  0  0  0  0  0  0  0
   -4.9171   -0.3837    3.4391 C   0  0  0  0  0  0  0  0  0  0  0  0
   -4.8544    0.7547    4.4324 C   0  0  1  0  0  0  0  0  0  0  0  0
   -4.8968    0.1276    5.8227 C   0  0  0  0  0  2  0  0  0  0  0  0
   -3.5195    1.4745    4.3337 C   0  0  0  0  0  0  0  0  0  0  0  0
   -3.2571    1.9668    2.9253 C   0  0  0  0  0  0  0  0  0  0  0  0
   -4.3928    2.9128    2.5701 C   0  0  1  0  0  0  0  0  0  0  0  0
   -4.5803    3.8647    3.6456 N   0  0  0  0  0  0  0  0  0  0  0  0
   -4.1779    3.6090    1.2655 C   0  0  0  0  0  0  0  0  0  0  0  0
   -2.7229    3.8802    0.9640 C   0  0  0  0  0  0  0  0  0  0  0  0
   -2.4168    3.7555   -0.4961 C   0  0  1  0  0  0  0  0  0  0  0  0
   -3.6186    4.1420   -1.3430 C   0  0  0  0  0  0  0  0  0  0  0  0
   -3.6174    3.1825   -2.5328 C   0  0  1  0  0  0  0  0  0  0  0  0
   -2.6086    3.7215   -3.5161 C   0  0  0  0  0  0  0  0  0  0  0  0
   -3.1378    1.8270   -2.0691 C   0  0  0  0  0  3  0  0  0  0  0  0
   -2.2441    1.2530   -3.1317 C   0  0  0  0  0  0  0  0  0  0  0  0
   -1.9778   -0.2253   -2.8607 C   0  0  0  0  0  0  0  0  0  0  0  0
   -2.9330   -1.0255   -3.6863 C   0  0  1  0  0  0  0  0  0  0  0  0
   -2.6592   -0.7239   -5.1440 C   0  0  0  0  0  0  0  0  0  0  0  0
   -3.5828   -1.4926   -6.0586 C   0  0  0  0  0  3  0  0  0  0  0  0
   -3.3981   -2.9813   -5.8431 C   0  0  0  0  0  0  0  0  0  0  0  0
   -1.9323   -3.2981   -6.1655 C   0  0  0  0  0  2  0  0  0  0  0  0
   -2.8526   -2.4951   -3.4514 C   0  0  2  0  0  0  0  0  0  0  0  0
   -4.1678   -3.0552   -3.0144 C   0  0  0  0  0  0  0  0  0  0  0  0
   -1.7813   -2.9204   -2.5066 C   0  0  1  0  0  0  0  0  0  0  0  0
   -1.4824   -4.6723   -2.6961 S   0  0  0  0  0  0  0  0  0  0  0  0
   -0.1918   -4.9797   -3.4056 O   0  0  0  0  0  0  0  0  0  0  0  0
  1  2  1  6
  2  3  1  6
  2  4  1  0
  4  5  1  0
  5  6  1  0
  6  7  1  0
  7  8  1  1
  7  9  1  0
  9 10  1  0
 10 11  1  0
 11 12  1  0
 12 13  1  1
 12 14  1  0
 14 15  1  0
 15 16  1  0
 17 16  1  6
 17 18  1  0
 18 19  1  0
 19 20  1  0
 20 21  1  6
 20 22  1  0
 22 23  1  1
 23 24  1  1
 23 25  1  0
 25 26  1  0
 17 27  1  0
 27 28  1  0
 29 28  1  1
 29 30  1  0
 30 31  1  0
 31 32  1  0
 32 33  1  0
 33 34  1  1
 35 34  1  6
 35 36  1  0
 35 37  1  0
 37 38  1  0
 38 39  1  0
 39 40  1  1
 39 41  1  0
 41 42  1  1
 41 43  1  0
 43 44  1  1
 44 45  1  0
 43 46  1  0
 46 47  1  0
 47 48  1  0
 48 49  1  0
 49 50  1  1
 49 51  1  0
 51 52  1  0
 52 53  1  0
 53 54  1  1
 53 55  1  0
 55 56  1  0
 57 56  1  1
 57 58  1  0
 58 59  1  0
 59 60  1  6
 59 61  1  0
 61 62  1  0
 62 63  1  0
 63 64  1  0
 64 65  1  6
 65 66  1  0
 66 67  1  0
 67 68  1  0
 64 69  1  0
 69 70  1  1
 69 71  1  0
 71 72  1  6
 72 73  2  0
 29  1  1  0
 33  1  1  0
 57 22  1  0
 27 31  2  0
 71 36  1  0
M  RAD  8   9   2  13   3  14   2  26   3  42   3  46   2  50   3  61   2
M  RAD  2  66   2  68   3
M  END
>  <fragInfo>  (1) 
1 2 3 4 5 6 7 8 9 10 11 12 13 14 15 16 17 18 19 20 21 22 27 28 29 30 31 32 33 34 35 36 37 38 39 40 41 42 43 46 47 48 49 50 51 52 53 54 55 56 57 58 59 60 61 62 63 64 69 70 71
23 24
25 26
44 45
65
66
67 68
72 73


>  <torsionInfo>  (1) 
22 23 0 1
43 44 0 3
64 65 0 4
71 72 0 7
23 25 1 2
65 66 4 5
66 67 5 6


>  <atomInfo>  (1) 
1  -0.0322350C 
2  -0.0408721C 
3  -0.0622236C 
4  -0.0504156C 
5  -0.0527776C 
6  -0.0504262C 
7  -0.0411603C 
8  -0.0622342C 
9  -0.0357399C 
10 -0.0496335C 
11 -0.0496023C 
12 -0.0348853C 
13 -0.0315047C 
14 -0.0351594C 
15 -0.0493265C 
16 -0.0463992C 
17 -0.0199382C 
18 -0.0442148C 
19 -0.0260528C 
20 0.05954881C 
21 -0.3927281OA
22 0.01367997C 
23 0.06085003C 
24 -0.0382731C 
25 -0.3692332OA
26 0.11543937C 
27 -0.0675847C 
28 -0.0280415C 
29 -0.0305629C 
30 -0.0282985C 
31 -0.0701353C 
32 -0.0285945C 
33 -0.0340381C 
34 -0.0469556C 
35 -0.0399041C 
36 -0.0359143C 
37 -0.0479265C 
38 -0.0264476C 
39 0.05736648C 
40 -0.3928195OA
41 -0.0087542C 
42 -0.0288457C 
43 -0.0329791C 
44 -0.0526656C 
45 -0.0650957C 
46 -0.0350943C 
47 -0.0496214C 
48 -0.0498763C 
49 -0.0379461C 
50 -0.0317995C 
51 -0.0486884C 
52 -0.0377144C 
53 0.00389856C 
54 -0.3277113NA
55 -0.0377113C 
56 -0.0485070C 
57 -0.0333190C 
58 -0.0471208C 
59 -0.0408836C 
60 -0.0622238C 
61 -0.0357295C 
62 -0.0496434C 
63 -0.0498572C 
64 -0.0374268C 
65 -0.0470188C 
66 -0.0380054C 
67 -0.0467644C 
68 -0.0348975C 
69 -0.0272180C 
70 -0.0611027C 
71 0.03501436C 
72 0.01110846S 
73 -0.2625345OA


$$$$
