
     RDKit          2D

 90 90  0  0  0  0  0  0  0  0999 V2000
   10.0361    0.0000    0.0000 O   0  0  0  0  0  0  0  0  0  0  0  0
    9.9240   -1.4958    0.0000 C   0  0  0  0  0  0  0  0  0  0  0  0
    9.5902   -2.9582    0.0000 C   0  0  0  0  0  3  0  0  0  0  0  0
    9.0422   -4.3545    0.0000 N   0  0  0  0  0  0  0  0  0  0  0  0
    8.2922   -5.6535    0.0000 C   0  0  0  0  0  0  0  0  0  0  0  0
    9.5316   -6.4985    0.0000 C   0  0  0  0  0  0  0  0  0  0  0  0
    9.4195   -7.9943    0.0000 O   0  0  0  0  0  0  0  0  0  0  0  0
    7.3570   -6.8263    0.0000 C   0  0  0  0  0  0  0  0  0  0  0  0
    8.4566   -7.8466    0.0000 O   0  0  0  0  0  0  0  0  0  0  0  0
    6.2574   -7.8466    0.0000 C   0  0  0  0  0  0  0  0  0  0  0  0
    7.1927   -9.0193    0.0000 O   0  0  0  0  0  0  0  0  0  0  0  0
    5.0181   -8.6915    0.0000 C   0  0  0  0  0  3  0  0  0  0  0  0
    3.6666   -9.3424    0.0000 C   0  0  0  0  0  3  0  0  0  0  0  0
    2.2332   -9.7845    0.0000 O   0  0  0  0  0  0  0  0  0  0  0  0
    0.7500  -10.0081    0.0000 C   0  0  0  0  0  0  0  0  0  0  0  0
   -0.7500  -10.0081    0.0000 S   0  0  0  0  0  0  0  0  0  0  0  0
   -2.2332   -9.7845    0.0000 C   0  0  0  0  0  0  0  0  0  0  0  0
   -3.6666   -9.3424    0.0000 O   0  0  0  0  0  0  0  0  0  0  0  0
   -5.0181   -8.6915    0.0000 C   0  0  0  0  0  3  0  0  0  0  0  0
   -6.2574   -7.8466    0.0000 O   0  0  0  0  0  0  0  0  0  0  0  0
   -7.3570   -6.8263    0.0000 C   0  0  0  0  0  0  0  0  0  0  0  0
   -8.4566   -7.8466    0.0000 O   0  0  0  0  0  0  0  0  0  0  0  0
   -8.2922   -5.6535    0.0000 C   0  0  0  0  0  0  0  0  0  0  0  0
   -9.0422   -4.3545    0.0000 O   0  0  0  0  0  0  0  0  0  0  0  0
   -9.5902   -2.9582    0.0000 O   0  0  0  0  0  0  0  0  0  0  0  0
   -9.9240   -1.4958    0.0000 C   0  0  0  0  0  3  0  0  0  0  0  0
  -10.0361    0.0000    0.0000 C   0  0  0  0  0  3  0  0  0  0  0  0
   -9.9240    1.4958    0.0000 N   0  0  0  0  0  0  0  0  0  0  0  0
   -9.5902    2.9582    0.0000 O   0  0  0  0  0  0  0  0  0  0  0  0
   -9.0422    4.3545    0.0000 C   0  0  0  0  0  0  0  0  0  0  0  0
  -10.3937    5.0053    0.0000 O   0  0  0  0  0  0  0  0  0  0  0  0
   -8.2922    5.6535    0.0000 S   0  0  0  0  0  0  0  0  0  0  0  0
   -7.3570    6.8263    0.0000 N   0  0  0  0  0  0  0  0  0  0  0  0
   -6.2574    7.8466    0.0000 C   0  0  0  0  0  0  0  0  0  0  0  0
   -7.1927    9.0193    0.0000 O   0  0  0  0  0  0  0  0  0  0  0  0
   -5.0181    8.6915    0.0000 C   0  0  0  0  0  0  0  0  0  0  0  0
   -5.7681    9.9906    0.0000 O   0  0  0  0  0  0  0  0  0  0  0  0
   -3.6666    9.3424    0.0000 O   0  0  0  0  0  0  0  0  0  0  0  0
   -2.2332    9.7845    0.0000 O   0  0  0  0  0  0  0  0  0  0  0  0
   -0.7500   10.0081    0.0000 C   0  0  0  0  0  3  0  0  0  0  0  0
    0.7500   10.0081    0.0000 S   0  0  0  0  0  0  0  0  0  0  0  0
    2.2332    9.7845    0.0000 C   0  0  0  0  0  0  0  0  0  0  0  0
    2.5670   11.2469    0.0000 C   0  0  0  0  0  0  0  0  0  0  0  0
    4.0004   11.6890    0.0000 O   0  0  0  0  0  0  0  0  0  0  0  0
    3.6666    9.3424    0.0000 O   0  0  0  0  0  0  0  0  0  0  0  0
    5.0181    8.6915    0.0000 C   0  0  0  0  0  3  0  0  0  0  0  0
    6.2574    7.8466    0.0000 S   0  0  0  0  0  0  0  0  0  0  0  0
    7.3570    6.8263    0.0000 O   0  0  0  0  0  0  0  0  0  0  0  0
    8.2922    5.6535    0.0000 C   0  0  0  0  0  0  0  0  0  0  0  0
    9.5316    6.4985    0.0000 O   0  0  0  0  0  0  0  0  0  0  0  0
    9.0422    4.3545    0.0000 S   0  0  0  0  0  0  0  0  0  0  0  0
   10.3937    5.0053    0.0000 O   0  0  0  0  0  0  0  0  0  0  0  0
    9.5902    2.9582    0.0000 C   0  0  0  0  0  3  0  0  0  0  0  0
    9.9240    1.4958    0.0000 S   0  0  0  0  0  0  0  0  0  0  0  0
   11.4073    1.7194    0.0000 C   0  0  0  0  0  0  0  0  0  0  0  0
   12.3425    0.5466    0.0000 O   0  0  0  0  0  0  0  0  0  0  0  0
   11.9553    3.1157    0.0000 S   0  0  0  0  0  0  0  0  0  0  0  0
   13.4385    3.3392    0.0000 O   0  0  0  0  0  0  0  0  0  0  0  0
   13.9865    4.7356    0.0000 O   0  0  0  0  0  0  0  0  0  0  0  0
   15.4698    4.9591    0.0000 O   0  0  0  0  0  0  0  0  0  0  0  0
   16.0178    6.3554    0.0000 C   0  0  0  0  0  0  0  0  0  0  0  0
   17.5010    6.5790    0.0000 O   0  0  0  0  0  0  0  0  0  0  0  0
   15.0826    7.5282    0.0000 S   0  0  0  0  0  0  0  0  0  0  0  0
   15.6306    8.9245    0.0000 C   0  0  0  0  0  0  0  0  0  0  0  0
   14.6953   10.0972    0.0000 O   0  0  0  0  0  0  0  0  0  0  0  0
   15.2433   11.4935    0.0000 O   0  0  0  0  0  0  0  0  0  0  0  0
   14.3081   12.6663    0.0000 S   0  0  0  0  0  0  0  0  0  0  0  0
   14.8561   14.0626    0.0000 O   0  0  0  0  0  0  0  0  0  0  0  0
   13.9209   15.2353    0.0000 S   0  0  0  0  0  0  0  0  0  0  0  0
   14.4689   16.6317    0.0000 O   0  0  0  0  0  0  0  0  0  0  0  0
   13.5337   17.8044    0.0000 S   0  0  0  0  0  0  0  0  0  0  0  0
   14.0817   19.2007    0.0000 O   0  0  0  0  0  0  0  0  0  0  0  0
   13.1464   20.3735    0.0000 O   0  0  0  0  0  0  0  0  0  0  0  0
   13.6945   21.7698    0.0000 O   0  0  0  0  0  0  0  0  0  0  0  0
   12.7592   22.9425    0.0000 C   0  0  0  0  0  0  0  0  0  0  0  0
   13.3072   24.3388    0.0000 C   0  0  0  0  0  0  0  0  0  0  0  0
   12.3720   25.5116    0.0000 O   0  0  0  0  0  0  0  0  0  0  0  0
   12.9200   26.9079    0.0000 S   0  0  0  0  0  0  0  0  0  0  0  0
   11.9848   28.0806    0.0000 O   0  0  0  0  0  0  0  0  0  0  0  0
   12.5328   29.4769    0.0000 S   0  0  0  0  0  0  0  0  0  0  0  0
   13.5993    7.3046    0.0000 O   0  0  0  0  0  0  0  0  0  0  0  0
   12.6641    8.4774    0.0000 O   0  0  0  0  0  0  0  0  0  0  0  0
   11.1808    8.2538    0.0000 C   0  0  0  0  0  3  0  0  0  0  0  0
   10.2456    9.4265    0.0000 O   0  0  0  0  0  0  0  0  0  0  0  0
    8.7624    9.2030    0.0000 O   0  0  0  0  0  0  0  0  0  0  0  0
    7.8271   10.3757    0.0000 S   0  0  0  0  0  0  0  0  0  0  0  0
    6.3439   10.1522    0.0000 O   0  0  0  0  0  0  0  0  0  0  0  0
    8.3751   11.7720    0.0000 O   0  0  0  0  0  0  0  0  0  0  0  0
    7.4399   12.9448    0.0000 S   0  0  0  0  0  0  0  0  0  0  0  0
    7.9879   14.3411    0.0000 O   0  0  0  0  0  0  0  0  0  0  0  0
  1  2  1  0
  2  3  1  0
  3  4  1  0
  4  5  1  0
  5  6  1  6
  6  7  1  0
  5  8  1  0
  8  9  1  1
  8 10  1  0
 10 11  1  6
 10 12  1  0
 12 13  1  0
 13 14  1  0
 14 15  1  0
 15 16  1  0
 16 17  1  0
 17 18  1  0
 18 19  1  0
 19 20  1  0
 20 21  1  0
 21 22  1  6
 21 23  1  0
 23 24  1  0
 24 25  1  0
 25 26  1  0
 26 27  1  0
 27 28  1  0
 28 29  1  0
 29 30  1  0
 30 31  1  6
 30 32  1  0
 32 33  1  0
 33 34  1  0
 34 35  1  6
 34 36  1  0
 36 37  1  6
 36 38  1  0
 38 39  1  0
 39 40  1  0
 40 41  1  0
 41 42  1  0
 42 43  1  1
 43 44  1  0
 42 45  1  0
 45 46  1  0
 46 47  1  0
 47 48  1  0
 48 49  1  0
 49 50  1  1
 49 51  1  0
 51 52  1  0
 51 53  1  0
 53 54  1  0
 54 55  1  0
 55 56  1  1
 55 57  1  0
 57 58  1  0
 58 59  1  0
 59 60  1  0
 60 61  1  0
 61 62  1  1
 61 63  1  0
 63 64  1  0
 64 65  1  0
 65 66  1  0
 66 67  1  0
 67 68  1  0
 68 69  1  0
 69 70  1  0
 70 71  1  0
 71 72  1  0
 72 73  1  0
 73 74  1  0
 74 75  1  0
 75 76  1  0
 76 77  1  0
 77 78  1  0
 78 79  1  0
 79 80  1  0
 63 81  1  0
 81 82  1  0
 82 83  1  0
 83 84  1  0
 84 85  1  0
 85 86  1  0
 86 87  1  0
 86 88  1  0
 88 89  1  0
 89 90  1  0
 54  1  1  0
M  RAD  8   3   2  12   2  13   2  19   2  26   2  27   2  40   2  46   2
M  RAD  2  53   2  83   2
M  END
>  <fragInfo>  (1) 
1 2 3 4 5 8 9 10 11 12 13 14 15 16 17 18 19 20 21 22 23 24 25 26 27 28 29 30 31 32 33 34 35 36 37 38 39 40 41 42 45 46 47 48 49 50 51 52 53 54
6 7
43 44
55 56
57
58
59
60
61 62
63
64
65
66
67
68
69
70
71
72
73
74
75
76
77
78
79 80
81
82
83
84
85
86 87
88
89 90


>  <torsionInfo>  (1) 
5 6 0 1
42 43 0 2
54 55 0 3
55 57 3 4
57 58 4 5
58 59 5 6
59 60 6 7
60 61 7 8
61 63 8 9
63 64 9 10
63 81 9 26
64 65 10 11
65 66 11 12
66 67 12 13
67 68 13 14
68 69 14 15
69 70 15 16
70 71 16 17
71 72 17 18
72 73 18 19
73 74 19 20
74 75 20 21
75 76 21 22
76 77 22 23
77 78 23 24
78 79 24 25
81 82 26 27
82 83 27 28
83 84 28 29
84 85 29 30
85 86 30 31
86 88 31 32
88 89 32 33


>  <atomInfo>  (1) 
1  -0.3333924OA
2  0.07606780C 
3  0.04961437C 
4  -0.3028293NA
5  0.05917848C 
6  0.06106344C 
7  -0.3946489OA
8  0.09774981C 
9  -0.3886905OA
10 0.08734165C 
11 -0.3899571OA
12 0.02430684C 
13 0.09102675C 
14 -0.3644165OA
15 0.09483727C 
16 -0.1054199SA
17 0.09772361C 
18 -0.3368562OA
19 0.21246719C 
20 -0.3160147OA
21 0.18429524C 
22 -0.3658504OA
23 0.13302593C 
24 -0.2308986OA
25 -0.2283987OA
26 0.14306866C 
27 0.08485674C 
28 -0.1907375NA
29 -0.2571305OA
30 0.23628509C 
31 -0.3574841OA
32 -0.0159602SA
33 -0.2286395NA
34 0.16787926C 
35 -0.3724123OA
36 0.22899343C 
37 -0.3625860OA
38 -0.1989744OA
39 -0.2155315OA
40 0.17964412C 
41 -0.0894004SA
42 0.13023949C 
43 0.07893614C 
44 -0.3927574OA
45 -0.3450650OA
46 0.16779730C 
47 0.03157589SA
48 -0.2712901OA
49 0.22020712C 
50 -0.3585866OA
51 -0.0840165S 
52 -0.3485643OA
53 0.08580234C 
54 -0.0946520S 
55 0.17862003C 
56 -0.3704389OA
57 0.07846316SA
58 -0.1288719OA
59 -0.0515157OA
60 -0.1608526OA
61 0.24712090C 
62 -0.3571055OA
63 -0.0311308S 
64 0.13924862C 
65 -0.2104970OA
66 -0.1312117OA
67 0.20875311SA
68 -0.1869616OA
69 0.18834798SA
70 -0.1868803OA
71 0.21194620SA
72 -0.1013423OA
73 -0.0529365OA
74 -0.2026692OA
75 0.11009472C 
76 0.09048961C 
77 -0.2881310OA
78 0.17080446SA
79 -0.2225658OA
80 -0.0062320SA
81 -0.1785067OA
82 -0.1845610OA
83 0.28243140C 
84 -0.1806775OA
85 -0.1338740OA
86 0.12068767S 
87 -0.3074798OA
88 -0.1923458OA
89 0.17030415SA
90 -0.3061820OA


$$$$
