
     RDKit          3D

 38 40  0  0  0  0  0  0  0  0999 V2000
    8.9325    0.5966    0.7440 C   0  0  0  0  0  0  0  0  0  0  0  0
    8.6625    1.5068   -0.3938 C   0  0  0  0  0  0  0  0  0  0  0  0
    9.7973    1.6059   -1.3863 C   0  0  0  0  0  0  0  0  0  0  0  0
    7.3474    1.5134   -0.9640 C   0  0  0  0  0  0  0  0  0  0  0  0
    6.0984    1.7818   -0.5596 C   0  0  0  0  0  0  0  0  0  0  0  0
    5.1265    1.3894    0.3243 C   0  0  0  0  0  0  0  0  0  0  0  0
    5.1767    1.3637    1.7945 C   0  0  1  0  0  0  0  0  0  0  0  0
    3.7990    0.8796    2.2948 C   0  0  0  0  0  0  0  0  0  0  0  0
    6.1170    0.2414    2.2629 C   0  0  0  0  0  3  0  0  0  0  0  0
    5.8729   -0.9290    1.3158 C   0  0  0  0  0  0  0  0  0  0  0  0
    4.4781   -1.4183    1.5382 C   0  0  0  0  0  0  0  0  0  0  0  0
    3.4427   -0.3398    1.5075 C   0  0  2  0  0  0  0  0  0  0  0  0
    2.9820   -0.0464    0.1087 C   0  0  0  0  0  0  0  0  0  0  0  0
    1.7571    0.8258    0.1005 C   0  0  0  0  0  0  0  0  0  0  0  0
    0.6699    0.0557    0.8588 C   0  0  0  0  0  0  0  0  0  0  0  0
    0.4408   -1.2418    0.1249 C   0  0  0  0  0  0  0  0  0  0  0  0
   -0.0056   -0.9209   -1.2855 C   0  0  1  0  0  0  0  0  0  0  0  0
   -0.2325   -2.2279   -2.0124 C   0  0  0  0  0  0  0  0  0  0  0  0
   -0.7709   -2.0243   -3.3918 C   0  0  0  0  0  0  0  0  0  0  0  0
   -2.0816   -2.7733   -3.6013 C   0  0  0  0  0  0  0  0  0  0  0  0
   -3.0171   -2.2461   -2.7109 O   0  0  0  0  0  0  0  0  0  0  0  0
   -3.8797   -3.2577   -2.3033 C   0  0  0  0  0  0  0  0  0  0  0  0
   -3.7604   -3.5277   -0.8777 N   0  0  0  0  0  0  0  0  0  0  0  0
   -3.8703   -2.2548   -0.1940 C   0  0  2  0  0  0  0  0  0  0  0  0
   -2.3982   -1.7519   -0.0501 C   0  0  2  0  0  0  0  0  0  0  0  0
   -3.2355   -2.0519    1.1123 C   0  0  1  0  0  0  0  0  0  0  0  0
   -3.7112   -1.0212    2.0773 C   0  0  0  0  0  2  0  0  0  0  0  0
   -1.2264   -0.0675   -1.2935 C   0  0  0  0  0  0  0  0  0  0  0  0
   -2.3636   -0.4445   -0.7153 C   0  0  0  0  0  0  0  0  0  0  0  0
   -3.5153    0.4978   -0.7914 C   0  0  0  0  0  3  0  0  0  0  0  0
   -3.7280    1.1781    0.3773 O   0  0  0  0  0  0  0  0  0  0  0  0
   -4.3624    2.4018    0.2029 C   0  0  2  0  0  0  0  0  0  0  0  0
   -4.5745    3.1137    1.5200 C   0  0  0  0  0  0  0  0  0  0  0  0
   -5.7353    2.2089   -0.4248 C   0  0  0  0  0  0  0  0  0  0  0  0
   -6.4999    1.3724    0.4821 N   0  0  0  0  0  0  0  0  0  0  0  0
   -6.5091   -0.0684    0.3948 C   0  0  0  0  0  0  0  0  0  0  0  0
   -7.2613    2.0317    1.4873 C   0  0  0  0  0  0  0  0  0  0  0  0
   -7.9616    1.3939    2.3267 O   0  0  0  0  0  0  0  0  0  0  0  0
  1  2  1  0
  2  3  1  0
  2  4  1  0
  4  5  1  0
  5  6  1  0
  7  6  1  6
  7  8  1  0
  7  9  1  0
  9 10  1  0
 10 11  1  0
 11 12  1  0
 12 13  1  6
 13 14  1  0
 14 15  1  0
 15 16  1  0
 17 16  1  1
 17 18  1  0
 18 19  1  0
 19 20  1  0
 20 21  1  0
 21 22  1  0
 22 23  1  0
 24 23  1  6
 24 25  1  0
 25 26  1  0
 26 27  1  1
 17 28  1  0
 28 29  2  3
 29 30  1  0
 30 31  1  0
 31 32  1  0
 32 33  1  1
 32 34  1  0
 34 35  1  0
 35 36  1  0
 35 37  1  0
 37 38  2  0
 12  8  1  0
 26 24  1  0
 25 29  1  1
M  RAD  3   9   2  27   3  30   2
M  END
>  <fragInfo>  (1) 
17 18 19 20 21 22 23 24 25 26 27 28 29
1 2 3
4
5
6
7 8 9 10 11 12
13
14
15
16
30
31
32 33
34
35 36
37 38


>  <torsionInfo>  (1) 
16 17 9 0
29 30 0 10
2 4 1 2
4 5 2 3
5 6 3 4
6 7 4 5
12 13 5 6
13 14 6 7
14 15 7 8
15 16 8 9
30 31 10 11
31 32 11 12
32 34 12 13
34 35 13 14
35 37 14 15


>  <atomInfo>  (1) 
1  -0.0627736C 
2  -0.0471324C 
3  -0.0627736C 
4  -0.0509641C 
5  -0.0527880C 
6  -0.0501526C 
7  -0.0380463C 
8  -0.0473152C 
9  -0.0354567C 
10 -0.0496438C 
11 -0.0501529C 
12 -0.0411443C 
13 -0.0504368C 
14 -0.0530208C 
15 -0.0527351C 
16 -0.0469498C 
17 -0.0228891C 
18 -0.0447590C 
19 -0.0289728C 
20 0.04835433C 
21 -0.3662969OA
22 0.09671420C 
23 -0.2910261NA
24 0.01953724C 
25 0.00278206C 
26 -0.0137049C 
27 -0.0294926C 
28 -0.0791694C 
29 -0.0373758C 
30 0.10931341C 
31 -0.3659965OA
32 0.07318590C 
33 -0.0368883C 
34 0.04596649C 
35 -0.3457328N 
36 0.00898404C 
37 0.20903403C 
38 -0.2786978OA


$$$$
