
     RDKit          3D

 34 34  0  0  0  0  0  0  0  0999 V2000
    8.6180    1.1633   -0.0626 C   0  0  0  0  0  0  0  0  0  0  0  0
    8.5912   -0.1178    0.7404 C   0  0  0  0  0  0  0  0  0  0  0  0
    7.8752    0.1197    2.0501 C   0  0  0  0  0  0  0  0  0  0  0  0
    7.8812   -1.1561   -0.1010 C   0  0  0  0  0  0  0  0  0  0  0  0
    6.4600   -0.7206   -0.4263 C   0  0  0  0  0  0  0  0  0  0  0  0
    6.4502    0.5805   -1.1958 C   0  0  0  0  0  0  0  0  0  0  0  0
    4.9958    0.9237   -1.4681 C   0  0  1  0  0  0  0  0  0  0  0  0
    4.4181   -0.2107   -2.2775 C   0  0  0  0  0  0  0  0  0  0  0  0
    4.2355    1.1668   -0.1896 C   0  0  0  0  0  3  0  0  0  0  0  0
    4.2339   -0.0317    0.7218 C   0  0  0  0  0  0  0  0  0  0  0  0
    3.6060   -1.2432    0.0886 C   0  0  0  0  0  0  0  0  0  0  0  0
    2.1653   -1.0085   -0.3009 C   0  0  1  0  0  0  0  0  0  0  0  0
    1.6753   -2.3198   -0.9241 C   0  0  0  0  0  0  0  0  0  0  0  0
    1.3396   -0.8328    0.9780 C   0  0  0  0  0  0  0  0  0  0  0  0
   -0.1062   -0.5954    0.6563 C   0  0  1  0  0  0  0  0  0  0  0  0
   -0.2457    0.6671   -0.1889 C   0  0  1  0  0  0  0  0  0  0  0  0
    0.5507    0.6042   -1.4513 C   0  0  0  0  0  0  0  0  0  0  0  0
   -1.6965    0.8310   -0.5206 C   0  0  0  0  0  0  0  0  0  0  0  0
   -2.5235    0.6514    0.7439 C   0  0  0  0  0  0  0  0  0  0  0  0
   -3.1322    2.0037    1.1232 C   0  0  0  0  0  0  0  0  0  0  0  0
   -3.5262    2.6752   -0.1792 C   0  0  0  0  0  0  0  0  0  0  0  0
   -4.1854    3.9844    0.0783 C   0  0  0  0  0  0  0  0  0  0  0  0
   -5.4857    4.1425   -0.1416 C   0  0  0  0  0  0  0  0  0  0  0  0
   -6.3430    3.0581   -0.6434 C   0  0  0  0  0  0  0  0  0  0  0  0
   -6.6402    2.0128    0.3974 C   0  0  0  0  0  0  0  0  0  0  0  0
   -6.9007    0.7291   -0.2986 C   0  0  0  0  0  0  0  0  0  0  0  0
   -6.5645   -0.4401    0.2416 C   0  0  0  0  0  0  0  0  0  0  0  0
   -6.8471   -1.6987   -0.4967 C   0  0  0  0  0  0  0  0  0  0  0  0
   -6.0665   -2.8623    0.0418 C   0  0  0  0  0  0  0  0  0  0  0  0
   -4.8650   -2.3256    0.7727 C   0  0  0  0  0  0  0  0  0  0  0  0
   -3.4276   -3.4202    0.5260 S   0  0  0  0  0  0  0  0  0  0  0  0
   -1.9831   -2.5896    1.2500 C   0  0  0  0  0  0  0  0  0  0  0  0
   -1.2007   -1.5873    0.7687 S   0  0  2  0  0  0  0  0  0  0  0  0
   -1.3561   -2.1532   -1.5526 F   0  0  0  0  0  0  0  0  0  0  0  0
  1  2  1  0
  2  3  1  0
  2  4  1  0
  4  5  1  0
  5  6  1  0
  6  7  1  0
  7  8  1  1
  7  9  1  0
  9 10  1  0
 10 11  1  0
 11 12  1  0
 12 13  1  1
 12 14  1  0
 15 14  1  6
 15 16  1  0
 16 17  1  6
 16 18  1  0
 18 19  1  0
 19 20  1  0
 20 21  1  0
 21 22  1  0
 22 23  2  3
 23 24  1  0
 24 25  1  0
 25 26  1  0
 26 27  2  3
 27 28  1  0
 28 29  1  0
 29 30  1  0
 30 31  1  0
 31 32  1  0
 32 33  1  0
 33 34  1  0
 33 15  1  0
M  RAD  1   9   2
M  END
>  <fragInfo>  (1) 
15 16 17 18 19 20 21 22 23 24 25 26 27 28 29 30 31 32 33 34
1 2 3
4
5
6
7 8
9
10
11
12 13
14


>  <torsionInfo>  (1) 
14 15 10 0
2 4 1 2
4 5 2 3
5 6 3 4
6 7 4 5
7 9 5 6
9 10 6 7
10 11 7 8
11 12 8 9
12 14 9 10


>  <atomInfo>  (1) 
1  -0.0627736C 
2  -0.0471324C 
3  -0.0627736C 
4  -0.0509643C 
5  -0.0527983C 
6  -0.0504266C 
7  -0.0411603C 
8  -0.0622342C 
9  -0.0357404C 
10 -0.0496639C 
11 -0.0503866C 
12 -0.0431867C 
13 -0.0624691C 
14 -0.0378402C 
15 0.01597529C 
16 -0.0317060C 
17 -0.0614305C 
18 -0.0496236C 
19 -0.0527171C 
20 -0.0498143C 
21 -0.0350731C 
22 -0.0885281C 
23 -0.0882317C 
24 -0.0315990C 
25 -0.0315990C 
26 -0.0882312C 
27 -0.0884980C 
28 -0.0342872C 
29 -0.0406431C 
30 -0.0056068C 
31 -0.1504414SA
32 0.04706858C 
33 -0.0913834S 
34 -0.1912869F 


$$$$
