
     RDKit          3D

 28 28  0  0  0  0  0  0  0  0999 V2000
   -6.9443    2.5977    0.0545 C   0  0  0  0  0  0  0  0  0  0  0  0
   -5.4271    2.5446   -0.0142 C   0  0  0  0  0  0  0  0  0  0  0  0
   -4.9205    1.7313    1.1790 C   0  0  0  0  0  0  0  0  0  0  0  0
   -4.9954    1.8777   -1.3044 C   0  0  0  0  0  0  0  0  0  0  0  0
   -5.5505    0.4594   -1.3583 C   0  0  0  0  0  0  0  0  0  0  0  0
   -5.0067   -0.3133   -0.1683 C   0  0  0  0  0  0  0  0  0  0  0  0
   -3.4877   -0.3514   -0.2272 C   0  0  1  0  0  0  0  0  0  0  0  0
   -2.9933   -1.1306    0.9771 C   0  0  0  0  0  0  0  0  0  0  0  0
   -3.1308   -1.1480   -1.4819 C   0  0  0  0  0  3  0  0  0  0  0  0
   -1.6366   -1.2055   -1.5712 C   0  0  0  0  0  0  0  0  0  0  0  0
   -1.0448   -1.8843   -0.3480 C   0  0  0  0  0  0  0  0  0  0  0  0
    0.4551   -1.9417   -0.4382 C   0  0  1  0  0  0  0  0  0  0  0  0
    0.9761   -2.6802   -1.6016 C   0  0  0  0  0  0  0  0  0  0  0  0
    1.0373   -0.6335   -0.1021 C   0  0  0  0  0  0  0  0  0  0  0  0
    2.4993   -0.4841   -0.1409 C   0  0  2  0  0  0  0  0  0  0  0  0
    3.1942   -0.7068   -1.4250 C   0  0  0  0  0  3  0  0  0  0  0  0
    2.8726    0.2602   -2.5092 C   0  0  2  0  0  0  0  0  0  0  0  0
    1.4498    0.3559   -2.9233 C   0  0  0  0  0  0  0  0  0  0  0  0
    3.8601    0.2485   -3.6385 C   0  0  0  0  0  0  0  0  0  0  0  0
    3.4864    1.1729   -4.5982 O   0  0  0  0  0  0  0  0  0  0  0  0
    3.2388   -0.8996    1.0800 C   0  0  0  0  0  0  0  0  0  0  0  0
    2.7256   -0.0365    2.2403 C   0  0  2  0  0  0  0  0  0  0  0  0
    1.2409   -0.2327    2.4500 C   0  0  0  0  0  0  0  0  0  0  0  0
    3.0598    1.4308    1.9653 C   0  0  0  0  0  3  0  0  0  0  0  0
    4.4147    1.4536    2.2693 O   0  0  0  0  0  0  0  0  0  0  0  0
    4.5662    0.7569    3.4597 C   0  0  0  0  0  0  0  0  0  0  0  0
    3.4861   -0.2939    3.5042 C   0  0  1  0  0  0  0  0  0  0  0  0
    2.5746    0.0529    4.6710 C   0  0  0  0  0  2  0  0  0  0  0  0
  1  2  1  0
  2  3  1  0
  2  4  1  0
  4  5  1  0
  5  6  1  0
  6  7  1  0
  7  8  1  1
  7  9  1  0
  9 10  1  0
 10 11  1  0
 11 12  1  0
 12 13  1  6
 12 14  1  0
 15 14  1  6
 15 16  1  0
 16 17  1  0
 17 18  1  6
 17 19  1  0
 19 20  1  0
 15 21  1  0
 21 22  1  0
 22 23  1  1
 22 24  1  0
 24 25  1  0
 25 26  1  0
 26 27  1  0
 27 28  1  1
 27 22  1  0
M  RAD  4   9   2  16   2  24   2  28   3
M  END
>  <fragInfo>  (1) 
22 23 24 25 26 27 28
1 2 3
4
5
6
7 8
9
10
11
12 13
14
15
16
17 18
19 20
21


>  <torsionInfo>  (1) 
21 22 15 0
2 4 1 2
4 5 2 3
5 6 3 4
6 7 4 5
7 9 5 6
9 10 6 7
10 11 7 8
11 12 8 9
12 14 9 10
14 15 10 11
15 16 11 12
15 21 11 15
16 17 12 13
17 19 13 14


>  <atomInfo>  (1) 
1  -0.0627736C 
2  -0.0471324C 
3  -0.0627736C 
4  -0.0509643C 
5  -0.0527983C 
6  -0.0504266C 
7  -0.0411603C 
8  -0.0622342C 
9  -0.0357404C 
10 -0.0496644C 
11 -0.0504166C 
12 -0.0439952C 
13 -0.0624991C 
14 -0.0475448C 
15 -0.0370785C 
16 -0.0303435C 
17 -0.0175703C 
18 -0.0600293C 
19 0.04589828C 
20 -0.3960877OA
21 -0.0417615C 
22 0.00189612C 
23 -0.0566800C 
24 0.08988554C 
25 -0.3745911OA
26 0.05082561C 
27 -0.0064295C 
28 -0.0287646C 


$$$$
