
     RDKit          3D

 28 29  0  0  0  0  0  0  0  0999 V2000
   -5.0248   -1.2747    0.9430 C   0  0  0  0  0  0  0  0  0  0  0  0
   -5.5682   -1.8299   -0.1933 O   0  0  0  0  0  0  0  0  0  0  0  0
   -5.1668   -1.1341   -1.3352 C   0  0  0  0  0  3  0  0  0  0  0  0
   -3.8122   -1.4315   -1.5453 O   0  0  0  0  0  0  0  0  0  0  0  0
   -3.1029   -0.2410   -1.7297 C   0  0  2  0  0  0  0  0  0  0  0  0
   -2.7978   -0.0337   -3.1973 C   0  0  0  0  0  0  0  0  0  0  0  0
   -1.8545   -0.3110   -0.8867 C   0  0  2  0  0  0  0  0  0  0  0  0
   -2.2065   -0.0073    0.5651 C   0  0  1  0  0  0  0  0  0  0  0  0
   -0.8730    0.5819    1.0474 C   0  0  0  0  0  3  0  0  0  0  0  0
   -0.6314    1.6067   -0.0413 C   0  0  0  0  0  0  0  0  0  0  0  0
   -0.8336    0.7398   -1.2911 C   0  0  2  0  0  0  0  0  0  0  0  0
   -1.2812    1.4812   -2.3552 O   0  0  0  0  0  0  0  0  0  0  0  0
    0.5013    0.0983   -1.5764 C   0  0  0  0  0  0  0  0  0  0  0  0
    1.0356   -0.6298   -0.3536 C   0  0  0  0  0  0  0  0  0  0  0  0
    2.2609   -1.2195   -0.6129 O   0  0  0  0  0  0  0  0  0  0  0  0
    3.1899   -0.2369   -0.9835 C   0  0  0  0  0  3  0  0  0  0  0  0
    3.1804    0.8135    0.1193 C   0  0  2  0  0  0  0  0  0  0  0  0
    4.0836    1.8366   -0.1716 O   0  0  0  0  0  0  0  0  0  0  0  0
    3.5430    0.1017    1.4071 C   0  0  0  0  0  0  0  0  0  0  0  0
    4.9380   -0.4967    1.1868 C   0  0  0  0  0  3  0  0  0  0  0  0
    5.3701   -1.2252    2.4317 C   0  0  0  0  0  3  0  0  0  0  0  0
    6.8774   -1.1019    2.5464 C   0  0  0  0  0  3  0  0  0  0  0  0
    7.4568   -0.8184    1.1726 C   0  0  0  0  0  3  0  0  0  0  0  0
    8.7943   -1.5471    1.0563 C   0  0  0  0  0  0  0  0  0  0  0  0
   -3.1844    1.1737    0.6066 C   0  0  0  0  0  0  0  0  0  0  0  0
   -4.3965    0.8523    0.0156 O   0  0  0  0  0  0  0  0  0  0  0  0
   -5.2611    0.2135    0.9010 C   0  0  2  0  0  0  0  0  0  0  0  0
   -5.2365    0.8453    2.2743 C   0  0  0  0  0  0  0  0  0  0  0  0
  1  2  1  0
  2  3  1  0
  3  4  1  0
  4  5  1  0
  5  6  1  6
  7  5  1  6
  7  8  1  0
  8  9  1  1
  9 10  1  0
 10 11  1  0
 11 12  1  6
 11 13  1  0
 13 14  1  0
 14 15  1  0
 15 16  1  0
 16 17  1  0
 17 18  1  6
 17 19  1  0
 19 20  1  0
 20 21  1  0
 21 22  1  0
 22 23  1  0
 23 24  1  0
  8 25  1  0
 25 26  1  0
 26 27  1  0
 27 28  1  1
 27  1  1  0
  7 11  1  0
M  RAD  7   3   2   9   2  16   2  20   2  21   2  22   2  23   2
M  END
>  <fragInfo>  (1) 
1 2 3 4 5 6 7 8 9 10 11 12 25 26 27 28
13
14
15
16
17 18
19
20
21
22
23 24


>  <torsionInfo>  (1) 
11 13 0 1
13 14 1 2
14 15 2 3
15 16 3 4
16 17 4 5
17 19 5 6
19 20 6 7
20 21 7 8
21 22 8 9
22 23 9 10


>  <atomInfo>  (1) 
1  0.07594976C 
2  -0.3452442OA
3  0.20930765C 
4  -0.3444957OA
5  0.06397596C 
6  -0.0381525C 
7  0.01917613C 
8  -0.0065478C 
9  -0.0298601C 
10 -0.0201829C 
11 0.07284051C 
12 -0.3893865OA
13 -0.0001133C 
14 0.04995644C 
15 -0.3725874OA
16 0.11197580C 
17 0.08310083C 
18 -0.3903047OA
19 -0.0209219C 
20 -0.0322320C 
21 -0.0314149C 
22 -0.0317868C 
23 -0.0379983C 
24 -0.0619577C 
25 0.05060747C 
26 -0.3757983OA
27 0.07813400C 
28 -0.0363907C 


$$$$
