
     RDKit          3D

  9  9  0  0  0  0  0  0  0  0999 V2000
   -2.0187    0.4048   -0.0101 C   0  0  0  0  0  0  0  0  0  0  0  0
   -1.0440    1.0242   -0.7779 O   0  0  0  0  0  0  0  0  0  0  0  0
   -0.1722    1.6642    0.0837 C   0  0  0  0  0  3  0  0  0  0  0  0
    0.9089    0.8902    0.4308 O   0  0  0  0  0  0  0  0  0  0  0  0
    1.1612   -0.1632   -0.4155 C   0  0  0  0  0  0  0  0  0  0  0  0
    2.6726   -0.4160   -0.4860 C   0  0  0  0  0  0  0  0  0  0  0  0
    0.6139   -1.3717    0.0637 O   0  0  0  0  0  0  0  0  0  0  0  0
   -0.7506   -1.4473   -0.1643 C   0  0  0  0  0  3  0  0  0  0  0  0
   -1.3711   -0.5852    0.7404 O   0  0  0  0  0  0  0  0  0  0  0  0
  1  2  1  0
  2  3  1  0
  3  4  1  0
  4  5  1  0
  5  6  1  0
  5  7  1  0
  7  8  1  0
  8  9  1  0
  9  1  1  0
M  RAD  2   3   2   8   2
M  END
>  <fragInfo>  (1) 
1 2 3 4 5 6 7 8 9


>  <torsionInfo>  (1) 


>  <atomInfo>  (1) 
1  0.15308463C 
2  -0.3210279OA
3  0.21378018C 
4  -0.3185440OA
5  0.16116118C 
6  -0.0131940C 
7  -0.3185440OA
8  0.21378018C 
9  -0.3210279OA


$$$$
