
     RDKit          3D

 26 27  0  0  0  0  0  0  0  0999 V2000
   -0.6568    2.2726    0.6607 C   0  0  0  0  0  0  0  0  0  0  0  0
   -2.1256    2.4218    0.8202 C   0  0  1  0  0  0  0  0  0  0  0  0
   -2.6275    3.8231    0.7753 C   0  0  0  0  0  0  0  0  0  0  0  0
   -2.9458    1.4390    0.0514 C   0  0  0  0  0  0  0  0  0  0  0  0
   -3.2953    0.2979    1.0147 C   0  0  0  0  0  0  0  0  0  0  0  0
   -4.5583   -0.3980    0.6221 C   0  0  0  0  0  0  0  0  0  0  0  0
   -4.2866   -1.6296   -0.2336 C   0  0  1  0  0  0  0  0  0  0  0  0
   -4.8713   -1.3473   -1.6012 C   0  0  0  0  0  0  0  0  0  0  0  0
   -2.7902   -1.7399   -0.4000 C   0  0  0  0  0  3  0  0  0  0  0  0
   -2.3391   -3.1796   -0.5404 C   0  0  0  0  0  3  0  0  0  0  0  0
   -0.9483   -3.2764    0.0574 C   0  0  0  0  0  0  0  0  0  0  0  0
    0.0007   -2.2894   -0.5659 C   0  0  2  0  0  0  0  0  0  0  0  0
    1.3851   -2.9241   -0.5549 C   0  0  0  0  0  0  0  0  0  0  0  0
    0.0282   -0.9718    0.1929 C   0  0  0  0  0  3  0  0  0  0  0  0
    1.4563   -0.6115    0.4755 C   0  0  2  0  0  0  0  0  0  0  0  0
    1.7389   -0.2024    1.9126 C   0  0  1  0  0  0  0  0  0  0  0  0
    3.2258   -0.3962    2.1894 C   0  0  0  0  0  0  0  0  0  0  0  0
    1.4587    1.2375    1.4740 C   0  0  0  0  0  0  0  0  0  0  0  0
    1.7900    0.8014    0.0664 C   0  0  1  0  0  0  0  0  0  0  0  0
    3.2708    0.9784   -0.1912 C   0  0  0  0  0  0  0  0  0  0  0  0
    3.6300    0.1079   -1.2173 O   0  0  0  0  0  0  0  0  0  0  0  0
    5.2925    0.2181   -1.5999 S   0  0  0  0  0  0  0  0  0  0  0  0
    6.2434    0.9191   -0.2142 C   0  0  0  0  0  0  0  0  0  0  0  0
    0.8971    1.3317   -0.9777 C   0  0  0  0  0  0  0  0  0  0  0  0
    1.2436    1.1167   -2.3354 N   0  0  0  0  0  0  0  0  0  0  0  0
   -0.2164    2.0011   -0.7218 C   0  0  0  0  0  0  0  0  0  0  0  0
  1  2  1  0
  2  3  1  6
  2  4  1  0
  4  5  1  0
  5  6  1  0
  6  7  1  0
  7  8  1  6
  7  9  1  0
  9 10  1  0
 10 11  1  0
 11 12  1  0
 12 13  1  1
 12 14  1  0
 15 14  1  1
 15 16  1  0
 16 17  1  6
 16 18  1  0
 18 19  1  0
 19 20  1  6
 20 21  1  0
 21 22  1  0
 22 23  1  0
 19 24  1  0
 24 25  1  0
 24 26  2  3
 26  1  1  0
 19 15  1  0
M  RAD  3   9   2  10   2  14   2
M  END
>  <fragInfo>  (1) 
1 2 3 4 5 6 7 8 9 10 11 12 13 14 15 16 17 18 19 24 25 26
20
21
22 23


>  <torsionInfo>  (1) 
19 20 0 1
20 21 1 2
21 22 2 3


>  <atomInfo>  (1) 
1  -0.0304645C 
2  -0.0407372C 
3  -0.0622121C 
4  -0.0504041C 
5  -0.0527770C 
6  -0.0504156C 
7  -0.0408749C 
8  -0.0622236C 
9  -0.0323484C 
10 -0.0346437C 
11 -0.0470070C 
12 -0.0405560C 
13 -0.0622125C 
14 -0.0313398C 
15 -0.0220033C 
16 -0.0391544C 
17 -0.0621647C 
18 -0.0366384C 
19 0.03777716C 
20 0.07269850C 
21 -0.3145880OA
22 -0.0125155SA
23 0.00821909C 
24 0.01299078C 
25 -0.4017581N 
26 -0.0647638C 


$$$$
