
     RDKit          3D

  5  5  0  0  0  0  0  0  0  0999 V2000
    0.4945   -1.0723   -0.1815 N   0  0  0  0  0  0  0  0  0  0  0  0
   -0.8423   -0.7622    0.3578 C   0  0  0  0  0  0  0  0  0  0  0  0
   -1.0094    0.6225   -0.2138 C   0  0  0  0  0  0  0  0  0  0  0  0
    0.2233    1.0864   -0.3663 C   0  0  0  0  0  0  0  0  0  0  0  0
    1.1339    0.1256    0.0542 O   0  0  0  0  0  0  0  0  0  0  0  0
  1  2  1  0
  2  3  1  0
  3  4  2  0
  4  5  1  0
  5  1  1  0
M  END
>  <fragInfo>  (1) 
1 2 3 4 5


>  <torsionInfo>  (1) 


>  <atomInfo>  (1) 
1  -0.1536146NA
2  0.05301885C 
3  -0.0300971C 
4  0.10822824C 
5  -0.4165372OA


$$$$
