
     RDKit          3D

 27 28  0  0  0  0  0  0  0  0999 V2000
   -2.4709    1.6957    2.4178 C   0  0  0  0  0  0  0  0  0  0  0  0
   -1.2762    1.7998    1.4782 C   0  0  0  0  0  0  0  0  0  0  0  0
   -0.5362    3.0854    1.7676 C   0  0  0  0  0  0  0  0  0  0  0  0
   -1.8369    1.9324    0.0590 C   0  0  0  0  0  0  0  0  0  0  0  0
   -2.6213    0.7102   -0.2081 C   0  0  0  0  0  0  0  0  0  0  0  0
   -3.9147    0.9528   -0.0192 C   0  0  0  0  0  0  0  0  0  0  0  0
   -4.9198   -0.0959   -0.2185 C   0  0  0  0  0  0  0  0  0  0  0  0
   -5.4592   -0.2789   -1.4371 C   0  0  0  0  0  0  0  0  0  0  0  0
   -4.9822    0.6091   -2.4804 C   0  0  0  0  0  0  0  0  0  0  0  0
   -3.8438    0.4377   -3.0358 C   0  0  0  0  0  0  0  0  0  0  0  0
   -2.7887   -0.4604   -2.9273 C   0  0  0  0  0  0  0  0  0  0  0  0
   -2.0380   -0.9330   -1.9967 C   0  0  0  0  0  0  0  0  0  0  0  0
   -1.0346   -1.8733   -2.3395 O   0  0  0  0  0  0  0  0  0  0  0  0
   -2.1294   -0.5835   -0.6055 C   0  0  1  0  0  0  0  0  0  0  0  0
   -0.4415    0.6398    1.5764 N   0  0  0  0  0  0  0  0  0  0  0  0
   -1.2245   -0.5546    1.6527 C   0  0  0  0  0  0  0  0  0  0  0  0
   -1.2628   -1.3184    0.3435 C   0  0  2  0  0  0  0  0  0  0  0  0
    0.0278   -1.4670   -0.1252 O   0  0  0  0  0  0  0  0  0  0  0  0
    0.6558   -0.2440   -0.3583 C   0  0  0  0  0  0  0  0  0  0  0  0
    1.9736   -0.5069   -0.8364 O   0  0  0  0  0  0  0  0  0  0  0  0
    2.8882   -1.2206   -0.0705 C   0  0  0  0  0  0  0  0  0  0  0  0
    4.0767   -0.7666    0.2687 C   0  0  0  0  0  0  0  0  0  0  0  0
    4.9298   -1.6216    1.0730 C   0  0  0  0  0  0  0  0  0  0  0  0
    6.1202   -1.1901    1.4238 C   0  0  0  0  0  0  0  0  0  0  0  0
    7.0133   -2.0469    2.2477 C   0  0  0  0  0  0  0  0  0  0  0  0
    8.5009   -2.3446    1.3377 Cl  0  0  0  0  0  0  0  0  0  0  0  0
    6.5945    0.1428    1.0125 C   0  0  0  0  0  0  0  0  0  0  0  0
  1  2  1  0
  2  3  1  0
  2  4  1  0
  4  5  1  0
  5  6  2  3
  6  7  1  0
  7  8  2  3
  8  9  1  0
  9 10  2  3
 10 11  1  0
 11 12  2  3
 12 13  1  0
 14 12  1  6
  2 15  1  0
 15 16  1  0
 16 17  1  0
 17 18  1  6
 18 19  1  0
 19 20  1  0
 20 21  1  0
 21 22  2  3
 22 23  1  0
 23 24  2  3
 24 25  1  0
 25 26  1  0
 24 27  1  0
 14  5  1  0
 17 14  1  0
M  END
>  <fragInfo>  (1) 
1 2 3 4 5 6 7 8 9 10 11 12 13 14 15 16 17
18
19
20
21 22
23 24 27
25 26


>  <torsionInfo>  (1) 
17 18 0 1
18 19 1 2
19 20 2 3
20 21 3 4
22 23 4 5
24 25 5 6


>  <atomInfo>  (1) 
1  -0.0468061C 
2  0.01631854C 
3  -0.0468061C 
4  -0.0130362C 
5  -0.0551880C 
6  -0.0621625C 
7  -0.0622861C 
8  -0.0622674C 
9  -0.0621461C 
10 -0.0589170C 
11 -0.0238082C 
12 0.10202147C 
13 -0.5115784OA
14 0.06519757C 
15 -0.3088551NA
16 0.02324520C 
17 0.08747711C 
18 -0.3395355OA
19 0.18806867C 
20 -0.4751460OA
21 0.08611802C 
22 -0.0274234C 
23 -0.0590990C 
24 -0.0584729C 
25 0.04334514C 
26 -0.1219120Cl
27 -0.0424270C 


$$$$
