
     RDKit          3D

 24 25  0  0  0  0  0  0  0  0999 V2000
    0.7876    1.8390   -0.9780 C   0  0  0  0  0  0  0  0  0  0  0  0
    2.0299    0.9894   -1.0622 C   0  0  1  0  0  0  0  0  0  0  0  0
    3.0375    1.5692   -0.0986 C   0  0  0  0  0  0  0  0  0  0  0  0
    4.2204    0.6689    0.1292 C   0  0  2  0  0  0  0  0  0  0  0  0
    4.9358    0.5859   -1.0537 O   0  0  0  0  0  0  0  0  0  0  0  0
    3.7938   -0.7071    0.6253 C   0  0  2  0  0  0  0  0  0  0  0  0
    4.2687   -1.7013   -0.2373 O   0  0  0  0  0  0  0  0  0  0  0  0
    2.2840   -0.7531    0.6659 C   0  0  1  0  0  0  0  0  0  0  0  0
    1.8296    0.2636    1.5046 O   0  0  0  0  0  0  0  0  0  0  0  0
    1.7868   -0.4519   -0.7167 C   0  0  1  0  0  0  0  0  0  0  0  0
    0.4349   -0.8847   -0.9596 N   0  0  0  0  0  0  0  0  0  0  0  0
   -0.5547   -0.0801   -0.2605 C   0  0  1  0  0  0  0  0  0  0  0  0
   -1.6242    0.2741   -1.2287 C   0  0  0  0  0  0  0  0  0  0  0  0
   -2.9434    0.6052   -0.6236 C   0  0  2  0  0  0  0  0  0  0  0  0
   -3.9098    0.4917   -1.6350 O   0  0  0  0  0  0  0  0  0  0  0  0
   -3.0426    2.0034   -0.0791 C   0  0  0  0  0  0  0  0  0  0  0  0
   -4.2031    2.0562    0.7078 O   0  0  0  0  0  0  0  0  0  0  0  0
   -3.3294   -0.3483    0.5107 C   0  0  1  0  0  0  0  0  0  0  0  0
   -3.2021   -1.6369   -0.0275 O   0  0  0  0  0  0  0  0  0  0  0  0
   -2.2458   -0.1629    1.5678 C   0  0  2  0  0  0  0  0  0  0  0  0
   -1.9264    1.1963    1.7244 O   0  0  0  0  0  0  0  0  0  0  0  0
   -0.9876   -0.8063    0.9715 C   0  0  1  0  0  0  0  0  0  0  0  0
   -1.2580   -2.1441    0.7615 O   0  0  0  0  0  0  0  0  0  0  0  0
   -0.1817   -2.8662    0.5776 O   0  0  0  0  0  0  0  0  0  0  0  0
  2  1  1  1
  2  3  1  0
  3  4  1  0
  4  5  1  6
  4  6  1  0
  6  7  1  6
  6  8  1  0
  8  9  1  1
  8 10  1  0
 10 11  1  1
 12 11  1  6
 12 13  1  0
 13 14  1  0
 14 15  1  6
 14 16  1  0
 16 17  1  0
 14 18  1  0
 18 19  1  6
 18 20  1  0
 20 21  1  6
 20 22  1  0
 22 23  1  6
 23 24  1  0
 10  2  1  0
 22 12  1  0
M  END
>  <fragInfo>  (1) 
1 2 3 4 5 6 7 8 9 10
11
12 13 14 15 18 19 20 21 22
16 17
23 24


>  <torsionInfo>  (1) 
10 11 0 1
11 12 1 2
14 16 2 3
22 23 2 4


>  <atomInfo>  (1) 
1  -0.0608233C 
2  -0.0236278C 
3  -0.0201755C 
4  0.08280077C 
5  -0.3903155OA
6  0.10722523C 
7  -0.3876533OA
8  0.09792987C 
9  -0.3886791OA
10 0.03843587C 
11 -0.3053974NA
12 0.04218563C 
13 -0.0009416C 
14 0.11761903C 
15 -0.3845999OA
16 0.07461792C 
17 -0.3932744OA
18 0.11355220C 
19 -0.3872026OA
20 0.11360972C 
21 -0.3873885OA
22 0.13642616C 
23 -0.2315762OA
24 -0.2513804OA


$$$$
