
     RDKit          3D

 16 17  0  0  0  0  0  0  0  0999 V2000
    4.1298    2.6035   -1.0086 C   0  0  0  0  0  0  0  0  0  0  0  0
    4.4404    1.6474    0.0127 O   0  0  0  0  0  0  0  0  0  0  0  0
    3.6270    0.5497    0.1615 C   0  0  0  0  0  0  0  0  0  0  0  0
    2.3706    0.6091   -0.2348 C   0  0  0  0  0  0  0  0  0  0  0  0
    1.4593   -0.5182   -0.1047 C   0  0  0  0  0  0  0  0  0  0  0  0
    0.1903   -0.7614   -0.3968 C   0  0  0  0  0  0  0  0  0  0  0  0
    0.4204   -2.0881    0.1453 C   0  0  0  0  0  0  0  0  0  0  0  0
   -0.3895   -3.3113    0.3400 C   0  0  0  0  0  0  0  0  0  0  0  0
    1.6491   -1.8234    0.4178 N   0  0  0  0  0  0  0  0  0  0  0  0
   -0.8323   -0.0197   -0.9668 O   0  0  0  0  0  0  0  0  0  0  0  0
   -2.1128   -0.2920   -0.8359 O   0  0  0  0  0  0  0  0  0  0  0  0
   -2.7065    0.2911    0.2740 C   0  0  1  0  0  0  0  0  0  0  0  0
   -2.7163    1.6707    0.4146 O   0  0  0  0  0  0  0  0  0  0  0  0
   -3.3411    2.3134   -0.5755 N   0  0  0  0  0  0  0  0  0  0  0  0
   -3.7356   -0.5298    1.0295 C   0  0  0  0  0  0  0  0  0  0  0  0
   -2.4525   -0.3411    1.5437 O   0  0  0  0  0  0  0  0  0  0  0  0
  1  2  1  0
  2  3  1  0
  3  4  2  3
  4  5  1  0
  5  6  2  0
  6  7  1  0
  7  8  1  0
  7  9  2  0
  6 10  1  0
 10 11  1  0
 12 11  1  6
 12 13  1  0
 13 14  1  0
 12 15  1  0
 15 16  1  0
  9  5  1  0
 16 12  1  0
M  END
>  <fragInfo>  (1) 
5 6 7 8 9
1 2
3 4
10
11
12 15 16
13 14


>  <torsionInfo>  (1) 
4 5 2 0
6 10 0 3
2 3 1 2
10 11 3 4
11 12 4 5
12 13 5 6


>  <atomInfo>  (1) 
1  0.07660256C 
2  -0.5042840OA
3  0.08470942C 
4  0.00229263C 
5  0.11451706C 
6  0.21193676C 
7  0.08650470C 
8  -0.0181806C 
9  -0.2453812NA
10 -0.3275443OA
11 -0.1169182OA
12 0.36205978C 
13 -0.2378874OA
14 -0.2098977NA
15 0.13959298C 
16 -0.3133010OA


$$$$
