
     RDKit          3D

 61 60  0  0  0  0  0  0  0  0999 V2000
   12.3410   -0.1938   -5.1239 C   0  0  0  0  0  0  0  0  0  0  0  0
   12.2836    0.4897   -3.7939 C   0  0  0  0  0  0  0  0  0  0  0  0
   13.6390    0.7599   -3.2078 C   0  0  0  0  0  0  0  0  0  0  0  0
   11.4375   -0.2730   -2.8146 C   0  0  0  0  0  0  0  0  0  0  0  0
   11.4103    0.4591   -1.4846 C   0  0  0  0  0  0  0  0  0  0  0  0
   12.8176    0.5565   -0.9847 C   0  0  0  0  0  0  0  0  0  0  0  0
   12.9422    1.2537    0.3175 C   0  0  1  0  0  0  0  0  0  0  0  0
   12.4596    2.6647    0.3527 C   0  0  0  0  0  0  0  0  0  0  0  0
   12.5911    0.4243    1.4957 C   0  0  0  0  0  3  0  0  0  0  0  0
   12.7094    1.1850    2.7782 C   0  0  0  0  0  0  0  0  0  0  0  0
   11.7198    2.3196    2.7755 C   0  0  0  0  0  0  0  0  0  0  0  0
   10.3349    1.7916    2.6769 C   0  0  1  0  0  0  0  0  0  0  0  0
    9.2840    2.8670    2.6640 C   0  0  0  0  0  0  0  0  0  0  0  0
   10.1184    0.6779    1.7208 C   0  0  0  0  0  3  0  0  0  0  0  0
    8.6558    0.2507    1.7472 C   0  0  0  0  0  0  0  0  0  0  0  0
    8.2531   -0.2141    3.1262 C   0  0  2  0  0  0  0  0  0  0  0  0
    9.0217   -1.3378    3.5915 N   0  0  0  0  0  1  0  0  0  0  0  0
    6.7859   -0.5742    3.1064 C   0  0  0  0  0  3  0  0  0  0  0  0
    5.9074    0.5745    2.7266 C   0  0  0  0  0  0  0  0  0  0  0  0
    6.1930    1.1091    1.3691 C   0  0  0  0  0  0  0  0  0  0  0  0
    5.2353    1.0942    0.4670 C   0  0  0  0  0  0  0  0  0  0  0  0
    5.4906    1.6184   -0.8893 C   0  0  0  0  0  0  0  0  0  0  0  0
    3.9021    0.5590    0.8058 C   0  0  1  0  0  0  0  0  0  0  0  0
    2.6868    1.8966    0.5949 S   0  0  0  0  0  0  0  0  0  0  0  0
    3.5479   -0.5662    0.0769 O   0  0  0  0  0  0  0  0  0  0  0  0
    2.2828   -0.9429    0.5249 C   0  0  0  0  0  3  0  0  0  0  0  0
    1.6685   -1.8382   -0.5249 C   0  0  0  0  0  0  0  0  0  0  0  0
    0.2951   -2.2990   -0.0748 C   0  0  1  0  0  0  0  0  0  0  0  0
    0.3795   -3.0752    1.2244 C   0  0  0  0  0  2  0  0  0  0  0  0
   -0.6024   -1.1231    0.0722 C   0  0  0  0  0  3  0  0  0  0  0  0
   -0.1638   -0.0812    1.0407 C   0  0  0  0  0  0  0  0  0  0  0  0
   -0.9172   -0.4958   -1.2595 C   0  0  0  0  0  0  0  0  0  0  0  0
   -1.6084   -1.5040   -2.1599 C   0  0  0  0  0  2  0  0  0  0  0  0
    0.3236   -0.0301   -1.9889 C   0  0  0  0  0  2  0  0  0  0  0  0
   -1.8386    0.6949   -0.9616 C   0  0  0  0  0  3  0  0  0  0  0  0
   -3.0486    0.1112   -0.2654 C   0  0  0  0  0  0  0  0  0  0  0  0
   -3.9675   -0.2139   -1.3067 O   0  0  0  0  0  0  0  0  0  0  0  0
   -4.1962    1.0441   -1.9152 C   0  0  1  0  0  0  0  0  0  0  0  0
   -5.0977    0.8188   -3.1467 C   0  0  0  0  0  2  0  0  0  0  0  0
   -4.8422    1.9582   -0.9598 C   0  0  0  0  0  0  0  0  0  0  0  0
   -6.1493    1.7243   -0.4034 C   0  0  1  0  0  0  0  0  0  0  0  0
   -7.1771    1.6707   -1.5594 C   0  0  0  0  0  0  0  0  0  0  0  0
   -8.5681    1.4241   -1.0051 C   0  0  0  0  0  2  0  0  0  0  0  0
   -6.3606    0.6696    0.5624 C   0  0  0  0  0  0  0  0  0  0  0  0
   -6.1279   -0.7440    0.2185 C   0  0  0  0  0  0  0  0  0  0  0  0
   -6.3910   -1.6987    1.3388 C   0  0  2  0  0  0  0  0  0  0  0  0
   -6.1247   -2.9967    0.8518 O   0  0  0  0  0  0  0  0  0  0  0  0
   -7.8389   -1.6069    1.7358 C   0  0  1  0  0  0  0  0  0  0  0  0
   -8.6765   -1.9694    0.5289 C   0  0  1  0  0  0  0  0  0  0  0  0
   -8.3030   -3.3816    0.1329 C   0  0  0  0  0  0  0  0  0  0  0  0
  -10.1507   -1.8418    0.8494 C   0  0  0  0  0  0  0  0  0  0  0  0
  -10.9342   -2.2160   -0.3859 C   0  0  0  0  0  3  0  0  0  0  0  0
  -12.4305   -2.1092   -0.1397 C   0  0  1  0  0  0  0  0  0  0  0  0
  -12.8830   -3.0139    0.9719 C   0  0  0  0  0  2  0  0  0  0  0  0
  -12.8181   -0.6724    0.1101 C   0  0  0  0  0  0  0  0  0  0  0  0
  -12.4363    0.1304   -1.1245 C   0  0  0  0  0  0  0  0  0  0  0  0
  -12.7810    1.5825   -0.9825 C   0  0  0  0  0  0  0  0  0  0  0  0
  -14.2868    1.6777   -0.7694 C   0  0  0  0  0  3  0  0  0  0  0  0
  -15.0550    1.8246   -2.3966 S   0  0  0  0  0  0  0  0  0  0  0  0
  -16.7912    1.9382   -2.2184 N   0  0  0  0  0  1  0  0  0  0  0  0
   -8.1512   -2.8078    3.0544 S   0  0  0  0  0  0  0  0  0  0  0  0
  1  2  1  0
  2  3  1  0
  2  4  1  0
  4  5  1  0
  5  6  1  0
  6  7  1  0
  7  8  1  6
  7  9  1  0
  9 10  1  0
 10 11  1  0
 11 12  1  0
 12 13  1  6
 12 14  1  0
 14 15  1  0
 15 16  1  0
 16 17  1  6
 16 18  1  0
 18 19  1  0
 19 20  1  0
 20 21  2  3
 21 22  1  0
 21 23  1  0
 23 24  1  6
 23 25  1  0
 25 26  1  0
 26 27  1  0
 27 28  1  0
 28 29  1  1
 28 30  1  0
 30 31  1  0
 30 32  1  0
 32 33  1  0
 32 34  1  0
 32 35  1  0
 35 36  1  0
 36 37  1  0
 37 38  1  0
 38 39  1  6
 38 40  1  0
 41 40  1  6
 41 42  1  0
 42 43  1  0
 41 44  1  0
 44 45  1  0
 45 46  1  0
 46 47  1  6
 46 48  1  0
 48 49  1  0
 49 50  1  1
 49 51  1  0
 51 52  1  0
 52 53  1  0
 53 54  1  1
 53 55  1  0
 55 56  1  0
 56 57  1  0
 57 58  1  0
 58 59  1  0
 59 60  1  0
 48 61  1  1
M  RAD  8   9   2  14   2  17   2  18   2  26   2  29   3  30   2  33   3
M  RAD  8  34   3  35   2  39   3  43   3  52   2  54   3  58   2  60   2
M  CHG  2  17   1  60   1
M  END
>  <fragInfo>  (1) 
1 2 3
4
5
6
7 8
9
10
11
12 13
14
15
16 17
18
19
20 21 22
23 24
25
26
27
28 29
30 31
32 33 34
35
36
37
38 39
40
41
42 43
44
45
46 47
48 61
49 50
51
52
53 54
55
56
57
58
59 60


>  <torsionInfo>  (1) 
2 4 0 1
4 5 1 2
5 6 2 3
6 7 3 4
7 9 4 5
9 10 5 6
10 11 6 7
11 12 7 8
12 14 8 9
14 15 9 10
15 16 10 11
16 18 11 12
18 19 12 13
19 20 13 14
21 23 14 15
23 25 15 16
25 26 16 17
26 27 17 18
27 28 18 19
28 30 19 20
30 32 20 21
32 35 21 22
35 36 22 23
36 37 23 24
37 38 24 25
38 40 25 26
40 41 26 27
41 42 27 28
41 44 27 29
44 45 29 30
45 46 30 31
46 48 31 32
48 49 32 33
49 51 33 34
51 52 34 35
52 53 35 36
53 55 36 37
55 56 37 38
56 57 38 39
57 58 39 40
58 59 40 41


>  <atomInfo>  (1) 
1  -0.0627736C 
2  -0.0471324C 
3  -0.0627736C 
4  -0.0509643C 
5  -0.0527983C 
6  -0.0504266C 
7  -0.0411603C 
8  -0.0622342C 
9  -0.0357403C 
10 -0.0496542C 
11 -0.0501480C 
12 -0.0409026C 
13 -0.0622298C 
14 -0.0291071C 
15 0.02212258C 
16 0.28039316C 
17 0.42192370N 
18 0.04294858C 
19 -0.0248849C 
20 -0.0816390C 
21 -0.0388481C 
22 -0.0405183C 
23 0.12139191C 
24 -0.1436091SA
25 -0.3574717OA
26 0.08596896C 
27 -0.0203886C 
28 -0.0289168C 
29 -0.0310954C 
30 -0.0165580C 
31 -0.0582438C 
32 -0.0113008C 
33 -0.0271222C 
34 -0.0271222C 
35 -0.0054341C 
36 0.05071679C 
37 -0.3775742OA
38 0.06130722C 
39 -0.0036189C 
40 -0.0235725C 
41 -0.0385734C 
42 -0.0469424C 
43 -0.0349065C 
44 -0.0478413C 
45 -0.0256449C 
46 0.06584855C 
47 -0.3919756OA
48 0.03026540C 
49 -0.0297769C 
50 -0.0613516C 
51 -0.0461584C 
52 -0.0348760C 
53 -0.0348846C 
54 -0.0315047C 
55 -0.0498422C 
56 -0.0517026C 
57 -0.0338819C 
58 0.09710604C 
59 0.30179841SA
60 0.52789091N 
61 -0.1729406SA


$$$$
