
     RDKit          3D

 68 69  0  0  0  0  0  0  0  0999 V2000
   14.3994    0.2958   -1.0888 C   0  0  0  0  0  0  0  0  0  0  0  0
   14.0592    1.5912   -0.4809 C   0  0  0  0  0  0  0  0  0  0  0  0
   14.6187    2.7756   -1.2285 C   0  0  0  0  0  0  0  0  0  0  0  0
   12.6515    1.7633   -0.0456 C   0  0  0  0  0  0  0  0  0  0  0  0
   11.6414    1.6158   -1.1244 C   0  0  0  0  0  0  0  0  0  0  0  0
   11.5805    0.2291   -1.6854 C   0  0  0  0  0  0  0  0  0  0  0  0
   11.1008   -0.8028   -0.7147 C   0  0  1  0  0  0  0  0  0  0  0  0
   11.8985   -0.9600    0.5287 C   0  0  0  0  0  2  0  0  0  0  0  0
    9.6187   -0.5918   -0.4094 C   0  0  0  0  0  0  0  0  0  0  0  0
    8.8352   -0.7115   -1.7142 C   0  0  0  0  0  0  0  0  0  0  0  0
    7.3878   -0.4993   -1.3760 C   0  0  2  0  0  0  0  0  0  0  0  0
    6.4744   -0.5845   -2.5563 C   0  0  0  0  0  3  0  0  0  0  0  0
    6.6054   -1.9657   -3.1788 C   0  0  0  0  0  3  0  0  0  0  0  0
    6.7294   -2.9578   -2.0407 C   0  0  0  0  0  0  0  0  0  0  0  0
    6.8648   -4.3649   -2.5621 C   0  0  0  0  0  0  0  0  0  0  0  0
    7.1765    0.8153   -0.6374 C   0  0  2  0  0  0  0  0  0  0  0  0
    7.9655    0.8337    0.6604 C   0  0  0  0  0  3  0  0  0  0  0  0
    7.5353   -0.2875    1.5689 C   0  0  0  0  0  0  0  0  0  0  0  0
    5.6882    0.9295   -0.3120 C   0  0  0  0  0  0  0  0  0  0  0  0
    5.5229    2.1375    0.3619 O   0  0  0  0  0  0  0  0  0  0  0  0
    4.1971    2.3257    0.6994 C   0  0  1  0  0  0  0  0  0  0  0  0
    3.3616    2.3425   -0.5830 C   0  0  0  0  0  0  0  0  0  0  0  0
    3.6347    1.1844    1.5365 C   0  0  1  0  0  0  0  0  0  0  0  0
    4.4265    1.0484    2.8358 C   0  0  0  0  0  3  0  0  0  0  0  0
    3.8197   -0.0982    3.6130 C   0  0  0  0  0  0  0  0  0  0  0  0
    2.7490   -0.6792    2.9370 O   0  0  0  0  0  0  0  0  0  0  0  0
    2.2380    1.6232    1.9665 C   0  0  1  0  0  0  0  0  0  0  0  0
    2.3773    2.8429    2.7381 N   0  0  0  0  0  2  0  0  0  0  0  0
    1.3337    1.7986    0.8738 N   0  0  0  0  0  0  0  0  0  0  0  0
    1.1503    0.5302    0.2024 C   0  0  0  0  0  0  0  0  0  0  0  0
    0.1966    0.6532   -0.9713 C   0  0  1  0  0  0  0  0  0  0  0  0
    0.0247   -0.6681   -1.6431 C   0  0  0  0  0  0  0  0  0  0  0  0
   -1.0626    1.2925   -0.4871 C   0  0  0  0  0  3  0  0  0  0  0  0
   -1.7762    0.5467    0.5876 C   0  0  2  0  0  0  0  0  0  0  0  0
   -0.9936    0.3290    1.8382 C   0  0  0  0  0  0  0  0  0  0  0  0
   -0.7833   -1.1363    2.1519 C   0  0  0  0  0  0  0  0  0  0  0  0
   -2.0606   -1.9110    2.1724 C   0  0  2  0  0  0  0  0  0  0  0  0
   -1.7881   -3.3057    1.6507 C   0  0  1  0  0  0  0  0  0  0  0  0
   -3.0643   -4.1163    1.6589 C   0  0  0  0  0  2  0  0  0  0  0  0
   -1.3357   -3.1705    0.2126 C   0  0  0  0  0  3  0  0  0  0  0  0
   -1.0387   -4.5250   -0.3926 C   0  0  0  0  0  3  0  0  0  0  0  0
   -0.6633   -4.3009   -1.8431 C   0  0  0  0  0  0  0  0  0  0  0  0
   -3.1628   -1.3091    1.3557 C   0  0  0  0  0  0  0  0  0  0  0  0
   -2.5531   -0.6450    0.1398 C   0  0  1  0  0  0  0  0  0  0  0  0
   -3.7370   -0.1132   -0.6788 C   0  0  1  0  0  0  0  0  0  0  0  0
   -3.2796    0.6739   -1.8732 C   0  0  0  0  0  2  0  0  0  0  0  0
   -4.5969   -1.2932   -1.0725 C   0  0  0  0  0  3  0  0  0  0  0  0
   -5.7478   -0.7519   -1.8683 C   0  0  0  0  0  0  0  0  0  0  0  0
   -6.8541   -0.4190   -1.1924 C   0  0  0  0  0  0  0  0  0  0  0  0
   -6.9702   -0.5670    0.2850 C   0  0  2  0  0  0  0  0  0  0  0  0
   -7.9579   -1.6035    0.7174 C   0  0  0  0  0  0  0  0  0  0  0  0
   -7.5873   -2.9453    0.1890 C   0  0  0  0  0  0  0  0  0  0  0  0
   -7.5680   -2.9112   -1.3230 C   0  0  0  0  0  0  0  0  0  0  0  0
   -8.9648   -2.5254   -1.7967 C   0  0  0  0  0  0  0  0  0  0  0  0
   -7.2302    0.7722    0.9501 C   0  0  1  0  0  0  0  0  0  0  0  0
   -6.1586    1.6028    0.6444 O   0  0  0  0  0  0  0  0  0  0  0  0
   -6.2940    2.7990    1.1825 O   0  0  0  0  0  0  0  0  0  0  0  0
   -8.5283    1.3943    0.5632 C   0  0  1  0  0  0  0  0  0  0  0  0
   -8.6823    1.6759   -0.8975 C   0  0  0  0  0  3  0  0  0  0  0  0
  -10.0282    2.2825   -1.1294 C   0  0  1  0  0  0  0  0  0  0  0  0
  -10.0202    3.5418   -1.9329 C   0  0  0  0  0  3  0  0  0  0  0  0
   -9.1790    4.5786   -1.2013 C   0  0  0  0  0  0  0  0  0  0  0  0
  -10.9623    1.2413   -1.6653 C   0  0  0  0  0  0  0  0  0  0  0  0
  -11.5255    0.4534   -0.5047 C   0  0  2  0  0  0  0  0  0  0  0  0
  -12.5183    1.2598    0.3029 C   0  0  0  0  0  3  0  0  0  0  0  0
  -13.0048    0.3665    1.4251 C   0  0  0  0  0  0  0  0  0  0  0  0
  -10.4649   -0.1907    0.3269 C   0  0  0  0  0  0  0  0  0  0  0  0
   -9.7210    0.7652    1.2029 C   0  0  0  0  0  3  0  0  0  0  0  0
  1  2  1  0
  2  3  1  0
  2  4  1  0
  4  5  1  0
  5  6  1  0
  6  7  1  0
  7  8  1  1
  7  9  1  0
  9 10  1  0
 11 10  1  6
 11 12  1  0
 12 13  1  0
 13 14  1  0
 14 15  1  0
 11 16  1  0
 16 17  1  1
 17 18  1  0
 16 19  1  0
 19 20  1  0
 20 21  1  0
 21 22  1  6
 21 23  1  0
 23 24  1  1
 24 25  1  0
 25 26  1  0
 23 27  1  0
 27 28  1  6
 27 29  1  0
 29 30  1  0
 30 31  1  0
 31 32  1  1
 31 33  1  0
 34 33  1  6
 34 35  1  0
 35 36  1  0
 37 36  1  6
 37 38  1  0
 38 39  1  6
 38 40  1  0
 40 41  1  0
 41 42  1  0
 37 43  1  0
 44 43  1  1
 44 45  1  0
 45 46  1  6
 45 47  1  0
 47 48  1  0
 48 49  2  3
 49 50  1  0
 50 51  1  6
 51 52  1  0
 52 53  1  0
 53 54  1  0
 50 55  1  0
 55 56  1  6
 56 57  1  0
 55 58  1  0
 58 59  1  6
 59 60  1  0
 60 61  1  6
 61 62  1  0
 60 63  1  0
 63 64  1  0
 64 65  1  1
 65 66  1  0
 64 67  1  0
 67 68  1  0
 44 34  1  0
 68 58  1  0
M  RAD  8   8   3  12   2  13   2  17   2  24   2  28   2  33   2  39   3
M  RAD  8  40   2  41   2  46   3  47   2  59   2  61   2  65   2  68   2
M  END
>  <fragInfo>  (1) 
58 59 60 63 64 67 68
1 2 3
4
5
6
7 8
9
10
11
12
13
14 15
16
17 18
19
20
21 22
23
24
25 26
27 28
29
30
31 32
33
34 35 36 37 43 44
38 39
40
41 42
45 46
47
48 49
50
51
52
53 54
55
56 57
61 62
65 66


>  <torsionInfo>  (1) 
55 58 36 0
60 61 0 38
64 65 0 39
2 4 1 2
4 5 2 3
5 6 3 4
6 7 4 5
7 9 5 6
9 10 6 7
10 11 7 8
11 12 8 9
11 16 8 12
12 13 9 10
13 14 10 11
16 17 12 13
16 19 12 14
19 20 14 15
20 21 15 16
21 23 16 17
23 24 17 18
23 27 17 20
24 25 18 19
27 29 20 21
29 30 21 22
30 31 22 23
31 33 23 24
33 34 24 25
37 38 25 26
44 45 25 29
38 40 26 27
40 41 27 28
45 47 29 30
47 48 30 31
49 50 31 32
50 51 32 33
50 55 32 36
51 52 33 34
52 53 34 35
55 56 36 37


>  <atomInfo>  (1) 
1  -0.0627736C 
2  -0.0471324C 
3  -0.0627736C 
4  -0.0509641C 
5  -0.0527880C 
6  -0.0501518C 
7  -0.0380034C 
8  -0.0318005C 
9  -0.0498756C 
10 -0.0495272C 
11 -0.0327100C 
12 -0.0317246C 
13 -0.0351672C 
14 -0.0527513C 
15 -0.0650972C 
16 -0.0118677C 
17 -0.0360221C 
18 -0.0618819C 
19 0.05029878C 
20 -0.3777825OA
21 0.06065896C 
22 -0.0382771C 
23 0.01995792C 
24 -0.0044993C 
25 0.04671424C 
26 -0.3960607OA
27 0.07612869C 
28 -0.2389831NA
29 -0.3003049NA
30 -0.0005324C 
31 -0.0282460C 
32 -0.0610073C 
33 -0.0311009C 
34 -0.0348369C 
35 -0.0496111C 
36 -0.0498665C 
37 -0.0377187C 
38 -0.0317683C 
39 -0.0312086C 
40 -0.0317987C 
41 -0.0379985C 
42 -0.0619577C 
43 -0.0467319C 
44 -0.0343126C 
45 -0.0280003C 
46 -0.0308767C 
47 -0.0133566C 
48 -0.0841462C 
49 -0.0823892C 
50 0.00651930C 
51 -0.0443480C 
52 -0.0529095C 
53 -0.0561488C 
54 -0.0653820C 
55 0.10227488C 
56 -0.2351740OA
57 -0.2515065OA
58 -0.0047058C 
59 -0.0290846C 
60 -0.0348063C 
61 -0.0382820C 
62 -0.0619683C 
63 -0.0467629C 
64 -0.0380136C 
65 -0.0385687C 
66 -0.0619789C 
67 -0.0466641C 
68 -0.0321809C 


$$$$
