
     RDKit          3D

 23 22  0  0  0  0  0  0  0  0999 V2000
    7.3953    2.2866    0.2573 C   0  0  0  0  0  0  0  0  0  0  0  0
    5.9581    2.6210   -0.2099 C   0  0  0  0  0  0  0  0  0  0  0  0
    5.2241    3.5891    0.6276 C   0  0  0  0  0  0  0  0  0  0  0  0
    5.2892    1.3409   -0.5982 C   0  0  0  0  0  0  0  0  0  0  0  0
    4.9928    0.3142    0.2127 C   0  0  0  0  0  0  0  0  0  0  0  0
    4.4635   -0.9452    0.2177 C   0  0  0  0  0  0  0  0  0  0  0  0
    3.1906   -1.4978   -0.2186 C   0  0  1  0  0  0  0  0  0  0  0  0
    2.9721   -1.2412   -1.7515 C   0  0  0  0  0  0  0  0  0  0  0  0
    3.0018   -2.9311    0.0569 C   0  0  0  0  0  3  0  0  0  0  0  0
    1.5603   -3.2282    0.2073 C   0  0  0  0  0  0  0  0  0  0  0  0
    0.7127   -2.2161    0.3098 C   0  0  0  0  0  0  0  0  0  0  0  0
    0.2000   -1.1294    0.8800 C   0  0  1  0  0  0  0  0  0  0  0  0
    1.0468    0.1450    1.0394 C   0  0  0  0  0  0  0  0  0  0  0  0
   -1.1202   -0.6665    0.4915 C   0  0  0  0  0  3  0  0  0  0  0  0
   -2.2305   -1.6419    1.1241 C   0  0  0  0  0  0  0  0  0  0  0  0
   -3.4208   -0.9929    0.8034 C   0  0  1  0  0  0  0  0  0  0  0  0
   -3.5878    0.3078    1.2283 N   0  0  0  0  0  0  0  0  0  0  0  0
   -4.5770   -1.5354   -0.1539 C   0  0  0  0  0  0  0  0  0  0  0  0
   -5.3348   -0.5835   -0.2613 C   0  0  0  0  0  0  0  0  0  0  0  0
   -6.2545    0.5317   -0.3866 C   0  0  0  0  0  0  0  0  0  0  0  0
   -7.3627    1.8300   -0.5343 C   0  0  0  0  0  0  0  0  0  0  0  0
   -6.5892    2.7226    0.2623 O   0  0  0  0  0  0  0  0  0  0  0  0
   -5.5298    2.9201   -0.6294 O   0  0  0  0  0  0  0  0  0  0  0  0
  1  2  1  0
  2  3  1  0
  2  4  1  0
  4  5  1  0
  5  6  1  0
  6  7  1  0
  7  8  1  6
  7  9  1  0
  9 10  1  0
 10 11  1  0
 11 12  1  0
 12 13  1  6
 12 14  1  0
 14 15  1  0
 15 16  1  0
 16 17  1  6
 16 18  1  0
 18 19  1  0
 19 20  3  0
 20 21  1  0
 21 22  1  0
 22 23  1  0
M  RAD  2   9   2  14   2
M  END
>  <fragInfo>  (1) 
18 19 20 21
1 2 3
4
5
6
7 8
9
10
11
12 13
14
15
16 17
22 23


>  <torsionInfo>  (1) 
16 18 12 0
21 22 0 13
2 4 1 2
4 5 2 3
5 6 3 4
6 7 4 5
7 9 5 6
9 10 6 7
10 11 7 8
11 12 8 9
12 14 9 10
14 15 10 11
15 16 11 12


>  <atomInfo>  (1) 
1  -0.0627736C 
2  -0.0471324C 
3  -0.0627736C 
4  -0.0509643C 
5  -0.0527983C 
6  -0.0504266C 
7  -0.0411603C 
8  -0.0622342C 
9  -0.0357403C 
10 -0.0496542C 
11 -0.0501512C 
12 -0.0410908C 
13 -0.0622330C 
14 -0.0341868C 
15 -0.0336748C 
16 0.01517281C 
17 -0.3268055NA
18 0.02416860C 
19 -0.0991072C 
20 -0.0712003C 
21 0.14237244C 
22 -0.2263596OA
23 -0.2508382OA


$$$$
