
     RDKit          3D

 28 28  0  0  0  0  0  0  0  0999 V2000
   -2.9417    1.7036    2.5248 C   0  0  0  0  0  0  0  0  0  0  0  0
   -3.3467    0.2765    2.2812 C   0  0  1  0  0  0  0  0  0  0  0  0
   -4.5897   -0.0960    3.0657 C   0  0  0  0  0  0  0  0  0  0  0  0
   -5.4740   -1.0262    2.2556 C   0  0  2  0  0  0  0  0  0  0  0  0
   -4.6477   -2.0470    1.7619 O   0  0  0  0  0  0  0  0  0  0  0  0
   -6.0398   -0.3014    1.0440 C   0  0  2  0  0  0  0  0  0  0  0  0
   -6.4138   -1.1797    0.0429 O   0  0  0  0  0  0  0  0  0  0  0  0
   -4.9665    0.6096    0.4825 C   0  0  1  0  0  0  0  0  0  0  0  0
   -5.0520    1.8968    0.9949 O   0  0  0  0  0  0  0  0  0  0  0  0
   -3.6210   -0.0390    0.8046 C   0  0  1  0  0  0  0  0  0  0  0  0
   -2.6774    0.4149   -0.0603 N   0  0  0  0  0  0  0  0  0  0  0  0
   -2.8062   -0.2224   -1.3878 C   0  0  0  0  0  3  0  0  0  0  0  0
   -1.5689   -1.2162   -1.1823 C   0  0  0  0  0  0  0  0  0  0  0  0
   -0.3619   -0.2154   -1.6788 C   0  0  1  0  0  0  0  0  0  0  0  0
   -0.4268    0.7921   -0.5640 O   0  0  0  0  0  0  0  0  0  0  0  0
    0.8050   -1.0559   -1.1051 C   0  0  0  0  0  3  0  0  0  0  0  0
    1.7273   -0.0012   -0.8800 O   0  0  0  0  0  0  0  0  0  0  0  0
    1.3687    0.9297   -1.6561 O   0  0  0  0  0  0  0  0  0  0  0  0
    2.1759    0.7633   -2.7118 O   0  0  0  0  0  0  0  0  0  0  0  0
    3.2433    0.0093   -2.8699 C   0  0  1  0  0  0  0  0  0  0  0  0
    4.2089    1.2696   -2.1227 C   0  0  0  0  0  0  0  0  0  0  0  0
    3.7164   -0.9607   -2.2688 O   0  0  0  0  0  0  0  0  0  0  0  0
    4.1569   -1.0128   -0.9931 C   0  0  0  0  0  0  0  0  0  0  0  0
    5.3599   -0.3581   -0.9106 O   0  0  0  0  0  0  0  0  0  0  0  0
    5.8371   -0.4409    0.2914 C   0  0  0  0  0  3  0  0  0  0  0  0
    7.1146    0.3303    0.4809 C   0  0  0  0  0  0  0  0  0  0  0  0
    7.7996   -0.5590    1.5628 C   0  0  0  0  0  3  0  0  0  0  0  0
    7.4206   -0.0061    2.7981 O   0  0  0  0  0  0  0  0  0  0  0  0
  2  1  1  6
  2  3  1  0
  3  4  1  0
  4  5  1  6
  4  6  1  0
  6  7  1  6
  6  8  1  0
  8  9  1  1
  8 10  1  0
 10 11  1  6
 11 12  1  0
 12 13  1  0
 13 14  1  0
 14 15  1  1
 14 16  1  0
 16 17  1  0
 17 18  1  0
 18 19  1  0
 19 20  1  0
 20 21  1  1
 20 22  1  0
 22 23  1  0
 23 24  1  0
 24 25  1  0
 25 26  1  0
 26 27  1  0
 27 28  1  0
 10  2  1  0
M  RAD  4  12   2  16   2  25   2  27   2
M  END
>  <fragInfo>  (1) 
1 2 3 4 5 6 7 8 9 10
11
12
13
14 15
16
17
18
19
20 21
22
23
24
25
26
27 28


>  <torsionInfo>  (1) 
10 11 0 1
11 12 1 2
12 13 2 3
13 14 3 4
14 16 4 5
16 17 5 6
17 18 6 7
18 19 7 8
19 20 8 9
20 22 9 10
22 23 10 11
23 24 11 12
24 25 12 13
25 26 13 14
26 27 14 15


>  <atomInfo>  (1) 
1  -0.0608233C 
2  -0.0236285C 
3  -0.0201755C 
4  0.08280077C 
5  -0.3903155OA
6  0.10722522C 
7  -0.3876533OA
8  0.09792914C 
9  -0.3886791OA
10 0.03839079C 
11 -0.3066599NA
12 0.02512129C 
13 -0.0071871C 
14 0.08782605C 
15 -0.3901169OA
16 0.15376254C 
17 -0.1969610OA
18 -0.0648988OA
19 -0.1741704OA
20 0.19376880C 
21 -0.0102250C 
22 -0.3236994OA
23 0.15002447C 
24 -0.3492630OA
25 0.08926357C 
26 0.00471792C 
27 0.08253721C 
28 -0.3903296OA


$$$$
