
     RDKit          3D

 30 32  0  0  0  0  0  0  0  0999 V2000
    5.4887   -3.4500    1.4543 C   0  0  0  0  0  0  0  0  0  0  0  0
    4.8629   -3.9807    2.6205 O   0  0  0  0  0  0  0  0  0  0  0  0
    3.4739   -3.9574    2.6816 C   0  0  0  0  0  0  0  0  0  0  0  0
    2.7781   -3.0383    2.0176 C   0  0  0  0  0  0  0  0  0  0  0  0
    1.3410   -3.0300    2.0930 C   0  0  0  0  0  0  0  0  0  0  0  0
    0.6569   -2.1297    1.4427 C   0  0  0  0  0  0  0  0  0  0  0  0
    1.3586   -1.1071    0.6200 C   0  0  2  0  0  0  0  0  0  0  0  0
    1.7081   -1.5147   -0.7277 C   0  0  0  0  0  0  0  0  0  0  0  0
    1.7250   -0.9118   -1.8477 C   0  0  0  0  0  0  0  0  0  0  0  0
    1.4278    0.3872   -2.3095 C   0  0  0  0  0  0  0  0  0  0  0  0
    0.1294    0.9101   -2.8096 C   0  0  0  0  0  0  0  0  0  0  0  0
    2.4286    1.2874   -2.3280 C   0  0  0  0  0  0  0  0  0  0  0  0
    3.7791    0.9613   -1.8943 C   0  0  0  0  0  0  0  0  0  0  0  0
    4.1227    1.1485   -0.6101 C   0  0  0  0  0  0  0  0  0  0  0  0
    3.1322    1.6852    0.3658 C   0  0  0  0  0  0  0  0  0  0  0  0
    2.4513   -0.4050    1.3341 C   0  0  0  0  0  0  0  0  0  0  0  0
    2.1145    0.6862    0.7037 C   0  0  0  0  0  0  0  0  0  0  0  0
    0.7516    0.2454    0.6928 C   0  0  0  0  0  0  0  0  0  0  0  0
   -0.4783    0.7309    0.7271 C   0  0  0  0  0  0  0  0  0  0  0  0
   -1.6434   -0.1693    0.6914 C   0  0  0  0  0  0  0  0  0  0  0  0
   -2.8725    0.2770    0.7238 C   0  0  0  0  0  0  0  0  0  0  0  0
   -3.0812    1.7625    0.8000 C   0  0  2  0  0  0  0  0  0  0  0  0
   -3.9587    2.0876    2.0056 C   0  0  0  0  0  0  0  0  0  0  0  0
   -5.1259    2.7761    1.3979 C   0  0  0  0  0  0  0  0  0  0  0  0
   -4.9480    2.7645    0.0883 C   0  0  0  0  0  0  0  0  0  0  0  0
   -3.8469    2.2534   -0.3637 C   0  0  0  0  0  0  0  0  0  0  0  0
   -3.4815    2.1914   -1.6870 O   0  0  0  0  0  0  0  0  0  0  0  0
   -3.8901    1.2200   -2.5751 C   0  0  0  0  0  0  0  0  0  0  0  0
   -4.9511    0.5002   -2.2661 C   0  0  0  0  0  0  0  0  0  0  0  0
   -5.4526   -0.4750   -3.0414 F   0  0  0  0  0  0  0  0  0  0  0  0
  1  2  1  0
  2  3  1  0
  3  4  2  3
  4  5  1  0
  5  6  2  3
  7  6  1  1
  7  8  1  0
  8  9  2  3
  9 10  1  0
 10 11  1  0
 10 12  2  3
 12 13  1  0
 13 14  2  3
 14 15  1  0
  7 16  1  0
 16 17  2  0
 17 18  1  0
 18 19  2  3
 19 20  1  0
 20 21  2  3
 21 22  1  0
 22 23  1  1
 23 24  1  0
 24 25  2  0
 25 26  2  0
 26 27  1  0
 27 28  1  0
 28 29  2  3
 29 30  1  0
 18  7  1  0
 17 15  1  0
 26 22  1  0
M  END
>  <fragInfo>  (1) 
7 8 9 10 11 12 13 14 15 16 17 18 19
1 2
3 4
5 6
20 21
22 23 24 25 26
27
28 29 30


>  <torsionInfo>  (1) 
6 7 3 0
19 20 0 4
2 3 1 2
4 5 2 3
21 22 4 5
26 27 5 6
27 28 6 7


>  <atomInfo>  (1) 
1  0.07660055C 
2  -0.5043680OA
3  0.08239957C 
4  -0.0278160C 
5  -0.0617116C 
6  -0.0662594C 
7  0.05075575C 
8  -0.0661076C 
9  -0.0618160C 
10 -0.0514060C 
11 -0.0397851C 
12 -0.0596419C 
13 -0.0656782C 
14 -0.0801244C 
15 -0.0093634C 
16 -0.0625101C 
17 -0.0419723C 
18 -0.0270763C 
19 -0.0575315C 
20 -0.0651698C 
21 -0.0729051C 
22 0.04715287C 
23 -0.0131717C 
24 -0.0377923C 
25 -0.0832277C 
26 0.15214308C 
27 -0.4580885OA
28 0.11972860C 
29 0.12177066C 
30 -0.2121481F 


$$$$
