
     RDKit          3D

 45 49  0  0  0  0  0  0  0  0999 V2000
    0.5219   -0.0710    0.9310 C   0  0  0  0  0  0  0  0  0  0  0  0
   -0.3817    0.5214    1.6753 C   0  0  0  0  0  0  0  0  0  0  0  0
   -0.1920    1.0148    3.0595 C   0  0  0  0  0  0  0  0  0  0  0  0
   -1.7400    0.7306    1.1017 C   0  0  2  0  0  0  0  0  0  0  0  0
   -1.7981    0.3956   -0.3612 C   0  0  0  0  0  0  0  0  0  0  0  0
   -1.4703    1.5267   -1.2586 C   0  0  0  0  0  0  0  0  0  0  0  0
   -0.3021    1.3890   -2.1402 C   0  0  0  0  0  3  0  0  0  0  0  0
    0.1044    0.0964   -2.6481 C   0  0  0  0  0  0  0  0  0  0  0  0
    0.6918    2.4522   -1.9155 C   0  0  1  0  0  0  0  0  0  0  0  0
    0.1798    3.4066   -0.8631 C   0  0  0  0  0  0  0  0  0  0  0  0
   -0.0788    2.7152    0.4587 C   0  0  0  0  0  0  0  0  0  0  0  0
   -1.4133    3.2167    0.9907 C   0  0  2  0  0  0  0  0  0  0  0  0
   -1.1009    4.0602    2.2105 C   0  0  0  0  0  0  0  0  0  0  0  0
   -2.2961    2.0810    1.4387 C   0  0  1  0  0  0  0  0  0  0  0  0
   -3.6369    2.2074    0.7492 C   0  0  0  0  0  0  0  0  0  0  0  0
   -4.3212    0.8469    0.9096 C   0  0  0  0  0  3  0  0  0  0  0  0
   -5.8126    0.9584    0.8931 C   0  0  0  0  0  3  0  0  0  0  0  0
   -6.3809   -0.0409   -0.0963 C   0  0  1  0  0  0  0  0  0  0  0  0
   -7.3380    0.7210   -0.9939 C   0  0  0  0  0  0  0  0  0  0  0  0
   -5.2474   -0.6584   -0.9042 C   0  0  0  0  0  0  0  0  0  0  0  0
   -5.1825   -2.1376   -0.6356 C   0  0  0  0  0  0  0  0  0  0  0  0
   -3.8647   -2.5127    0.0110 C   0  0  1  0  0  0  0  0  0  0  0  0
   -4.1344   -3.0747    1.3870 C   0  0  0  0  0  0  0  0  0  0  0  0
   -3.1898   -3.5926   -0.8085 C   0  0  0  0  0  0  0  0  0  0  0  0
   -1.8076   -3.7831   -0.3477 C   0  0  0  0  0  0  0  0  0  0  0  0
   -0.7699   -3.0657   -0.7532 C   0  0  0  0  0  0  0  0  0  0  0  0
   -0.9168   -1.9804   -1.7324 C   0  0  0  0  0  0  0  0  0  0  0  0
    0.2389   -0.9713   -1.5437 C   0  0  1  0  0  0  0  0  0  0  0  0
    1.4616   -1.8027   -2.0355 C   0  0  0  0  0  0  0  0  0  0  0  0
    0.4605   -0.5497   -0.3129 N   0  0  0  0  0  0  0  0  0  0  0  0
    1.7553   -0.6936    0.3836 C   0  0  2  0  0  0  0  0  0  0  0  0
    2.0767   -2.4375    0.7301 S   0  0  0  0  0  0  0  0  0  0  0  0
    3.3809   -2.5145    1.9893 C   0  0  0  0  0  0  0  0  0  0  0  0
    4.5936   -1.7383    1.5972 C   0  0  1  0  0  0  0  0  0  0  0  0
    5.6434   -2.5618    0.9119 C   0  0  0  0  0  0  0  0  0  0  0  0
    6.0591   -3.6572    1.8920 C   0  0  0  0  0  0  0  0  0  0  0  0
    4.3122   -0.4313    0.9356 C   0  0  1  0  0  0  0  0  0  0  0  0
    4.9776    0.6595    1.7462 C   0  0  0  0  0  0  0  0  0  0  0  0
    4.7502   -0.3874   -0.5117 C   0  0  2  0  0  0  0  0  0  0  0  0
    6.2191   -0.4223   -0.4903 N   0  0  0  0  0  0  0  0  0  0  0  0
    4.3583    0.9707   -1.0577 C   0  0  0  0  0  0  0  0  0  0  0  0
    3.9111    1.9094    0.0172 C   0  0  0  0  0  3  0  0  0  0  0  0
    2.6082    2.6075   -0.3018 C   0  0  0  0  0  0  0  0  0  0  0  0
    2.0816    2.0294   -1.5987 C   0  0  2  0  0  0  0  0  0  0  0  0
    2.9897    2.5680   -2.7083 C   0  0  0  0  0  2  0  0  0  0  0  0
  1  2  2  3
  2  3  1  0
  2  4  1  0
  4  5  1  6
  5  6  1  0
  6  7  1  0
  7  8  1  0
  7  9  1  0
  9 10  1  1
 10 11  1  0
 11 12  1  0
 12 13  1  1
 12 14  1  0
 14 15  1  6
 15 16  1  0
 16 17  1  0
 17 18  1  0
 18 19  1  6
 18 20  1  0
 20 21  1  0
 21 22  1  0
 22 23  1  1
 22 24  1  0
 24 25  1  0
 25 26  2  3
 26 27  1  0
 27 28  1  0
 28 29  1  6
 28 30  1  0
 30 31  1  0
 31 32  1  1
 32 33  1  0
 33 34  1  0
 34 35  1  6
 35 36  1  0
 34 37  1  0
 37 38  1  1
 37 39  1  0
 39 40  1  1
 39 41  1  0
 41 42  1  0
 42 43  1  0
 43 44  1  0
 44 45  1  6
 30  1  1  0
 31  1  1  0
 14  4  1  0
 28  8  1  0
 44  9  1  0
M  RAD  5   7   2  16   2  17   2  42   2  45   3
M  END
>  <fragInfo>  (1) 
1 2 3 4 5 6 7 8 9 10 11 12 13 14 15 16 17 18 19 20 21 22 23 24 25 26 27 28 29 30 31 32 33 34 37 38 39 40 41 42 43 44 45
35 36


>  <torsionInfo>  (1) 
34 35 0 1


>  <atomInfo>  (1) 
1  0.04763923C 
2  -0.0476537C 
3  -0.0415067C 
4  -0.0153495C 
5  -0.0457895C 
6  -0.0461069C 
7  -0.0183798C 
8  -0.0231715C 
9  -0.0319693C 
10 -0.0493547C 
11 -0.0501300C 
12 -0.0408410C 
13 -0.0622227C 
14 -0.0319168C 
15 -0.0462011C 
16 -0.0346121C 
17 -0.0323477C 
18 -0.0408650C 
19 -0.0622234C 
20 -0.0501611C 
21 -0.0501514C 
22 -0.0408030C 
23 -0.0622132C 
24 -0.0324836C 
25 -0.0881860C 
26 -0.0862064C 
27 -0.0117877C 
28 0.04268939C 
29 -0.0413462C 
30 -0.3492912N 
31 0.11563883C 
32 -0.1305191SA
33 -0.0011781C 
34 -0.0284349C 
35 -0.0522092C 
36 -0.0650776C 
37 -0.0254071C 
38 -0.0607332C 
39 0.00701578C 
40 -0.3274303NA
41 -0.0345894C 
42 -0.0367501C 
43 -0.0466950C 
44 -0.0343442C 
45 -0.0314833C 


$$$$
