
     RDKit          3D

 24 23  0  0  0  0  0  0  0  0999 V2000
    2.5285    4.4931    0.0317 C   0  0  0  0  0  0  0  0  0  0  0  0
    3.1095    3.2313   -0.0043 O   0  0  0  0  0  0  0  0  0  0  0  0
    3.0776    2.6634   -1.2644 C   0  0  0  0  0  3  0  0  0  0  0  0
    2.5868    1.2487   -1.1763 C   0  0  0  0  0  3  0  0  0  0  0  0
    2.0613    0.9711    0.1981 C   0  0  2  0  0  0  0  0  0  0  0  0
    3.1237    1.1613    1.2606 C   0  0  0  0  0  0  0  0  0  0  0  0
    4.3038    0.2396    1.0444 C   0  0  0  0  0  3  0  0  0  0  0  0
    4.1332   -0.5700   -0.0861 O   0  0  0  0  0  0  0  0  0  0  0  0
    5.3710   -1.1342   -0.3830 C   0  0  0  0  0  3  0  0  0  0  0  0
    5.4016   -2.5618    0.0900 C   0  0  0  0  0  3  0  0  0  0  0  0
    6.7326   -2.9904    0.0331 F   0  0  0  0  0  0  0  0  0  0  0  0
    1.5278   -0.4353    0.3229 C   0  0  0  0  0  0  0  0  0  0  0  0
    1.0273   -0.6026    1.7414 C   0  0  0  0  0  3  0  0  0  0  0  0
   -0.3162   -0.2335    1.7968 O   0  0  0  0  0  0  0  0  0  0  0  0
   -0.9663   -0.8487    0.7288 C   0  0  0  0  0  3  0  0  0  0  0  0
   -1.2529    0.1915   -0.3304 C   0  0  0  0  0  0  0  0  0  0  0  0
   -2.5849    0.8546   -0.1442 C   0  0  0  0  0  3  0  0  0  0  0  0
   -3.6577   -0.2055   -0.2130 C   0  0  0  0  0  3  0  0  0  0  0  0
   -4.3656   -0.1340   -1.5593 C   0  0  0  0  0  0  0  0  0  0  0  0
   -5.4343   -1.1958   -1.6184 C   0  0  0  0  0  3  0  0  0  0  0  0
   -6.4108   -0.9491   -0.5130 C   0  0  1  0  0  0  0  0  0  0  0  0
   -7.5340   -1.9396   -0.4556 C   0  0  0  0  0  2  0  0  0  0  0  0
   -5.7292   -0.7501    0.8245 C   0  0  0  0  0  3  0  0  0  0  0  0
   -6.7329   -0.5040    1.9182 C   0  0  0  0  0  0  0  0  0  0  0  0
  1  2  1  0
  2  3  1  0
  3  4  1  0
  5  4  1  6
  5  6  1  0
  6  7  1  0
  7  8  1  0
  8  9  1  0
  9 10  1  0
 10 11  1  0
  5 12  1  0
 12 13  1  0
 13 14  1  0
 14 15  1  0
 15 16  1  0
 16 17  1  0
 17 18  1  0
 18 19  1  0
 19 20  1  0
 20 21  1  0
 21 22  1  1
 21 23  1  0
 23 24  1  0
M  RAD  8   3   2   4   2   7   2   9   2  10   2  13   2  15   2  17   2
M  RAD  4  18   2  20   2  22   3  23   2
M  END
>  <fragInfo>  (1) 
1 2
3
4
5
6
7
8
9
10 11
12
13
14
15
16
17
18
19
20
21 22
23 24


>  <torsionInfo>  (1) 
2 3 0 1
3 4 1 2
4 5 2 3
5 6 3 4
5 12 3 9
6 7 4 5
7 8 5 6
8 9 6 7
9 10 7 8
12 13 9 10
13 14 10 11
14 15 11 12
15 16 12 13
16 17 13 14
17 18 14 15
18 19 15 16
19 20 16 17
20 21 17 18
21 23 18 19


>  <atomInfo>  (1) 
1  0.03598496C 
2  -0.3784329OA
3  0.08696644C 
4  -0.0037227C 
5  -0.0305067C 
6  -0.0208226C 
7  0.08459165C 
8  -0.3662883OA
9  0.12123675C 
10 0.16248474C 
11 -0.2411664F 
12 -0.0208253C 
13 0.08443568C 
14 -0.3695696OA
15 0.08444293C 
16 -0.0207454C 
17 -0.0325195C 
18 -0.0347968C 
19 -0.0464771C 
20 -0.0346119C 
21 -0.0320417C 
22 -0.0312193C 
23 -0.0380086C 
24 -0.0619579C 


$$$$
