
     RDKit          3D

 18 18  0  0  0  0  0  0  0  0999 V2000
   -1.7922   -1.7068    0.6149 C   0  0  0  0  0  0  0  0  0  0  0  0
   -3.2629   -1.8509    0.7944 C   0  0  0  0  0  3  0  0  0  0  0  0
   -4.0935   -1.0301   -0.1317 C   0  0  0  0  0  0  0  0  0  0  0  0
   -3.8934    0.4157    0.1760 C   0  0  2  0  0  0  0  0  0  0  0  0
   -5.1011    1.2483   -0.0436 C   0  0  0  0  0  0  0  0  0  0  0  0
   -4.9534    2.4616   -0.0143 O   0  0  0  0  0  0  0  0  0  0  0  0
   -2.7902    0.9510   -0.7423 C   0  0  0  0  0  0  0  0  0  0  0  0
   -1.5850    0.5732   -0.1522 O   0  0  0  0  0  0  0  0  0  0  0  0
   -1.3785   -0.7690   -0.4677 C   0  0  1  0  0  0  0  0  0  0  0  0
    0.0988   -0.9352   -0.7479 C   0  0  0  0  0  0  0  0  0  0  0  0
    0.8644   -0.6278    0.5186 C   0  0  0  0  0  0  0  0  0  0  0  0
    2.3355   -0.7899    0.2517 C   0  0  0  0  0  0  0  0  0  0  0  0
    2.6852    0.1054   -0.7634 O   0  0  0  0  0  0  0  0  0  0  0  0
    4.0531   -0.0566   -1.0001 C   0  0  2  0  0  0  0  0  0  0  0  0
    4.2682   -1.4942   -1.4236 C   0  0  0  0  0  0  0  0  0  0  0  0
    4.7918    0.1825    0.3060 C   0  0  0  0  0  0  0  0  0  0  0  0
    4.5275    1.5774    0.8141 C   0  0  0  0  0  0  0  0  0  0  0  0
    5.2258    1.7456    2.0108 O   0  0  0  0  0  0  0  0  0  0  0  0
  1  2  1  0
  2  3  1  0
  3  4  1  0
  4  5  1  6
  5  6  2  0
  4  7  1  0
  7  8  1  0
  8  9  1  0
  9 10  1  1
 10 11  1  0
 11 12  1  0
 12 13  1  0
 13 14  1  0
 14 15  1  1
 14 16  1  0
 16 17  1  0
 17 18  1  0
  9  1  1  0
M  RAD  1   2   2
M  END
>  <fragInfo>  (1) 
1 2 3 4 7 8 9
5 6
10
11
12
13
14 15
16
17 18


>  <torsionInfo>  (1) 
4 5 0 1
9 10 0 2
10 11 2 3
11 12 3 4
12 13 4 5
13 14 5 6
14 16 6 7
16 17 7 8


>  <atomInfo>  (1) 
1  -0.0235918C 
2  -0.0352375C 
3  -0.0383301C 
4  0.03829673C 
5  0.12488263C 
6  -0.3029936OA
7  0.05640071C 
8  -0.3774737OA
9  0.05786316C 
10 -0.0245331C 
11 -0.0271232C 
12 0.04701521C 
13 -0.3784185OA
14 0.05683683C 
15 -0.0385911C 
16 -0.0036548C 
17 0.04551370C 
18 -0.3962749OA


$$$$
