
     RDKit          3D

 30 32  0  0  0  0  0  0  0  0999 V2000
    4.8121   -0.7158   -0.7902 C   0  0  0  0  0  0  0  0  0  0  0  0
    3.6784   -0.2738    0.1765 C   0  0  2  0  0  0  0  0  0  0  0  0
    4.1342   -0.1574    1.6059 C   0  0  0  0  0  0  0  0  0  0  0  0
    2.3851   -1.0027   -0.1340 C   0  0  0  0  0  0  0  0  0  0  0  0
    2.1305   -2.1211    0.8389 C   0  0  0  0  0  0  0  0  0  0  0  0
    0.8257   -2.7757    0.4753 C   0  0  0  0  0  0  0  0  0  0  0  0
    0.9835   -4.2529    0.1801 C   0  0  1  0  0  0  0  0  0  0  0  0
    0.4886   -5.0571    1.3674 C   0  0  0  0  0  0  0  0  0  0  0  0
    0.2210   -4.6749   -1.0539 C   0  0  0  0  0  3  0  0  0  0  0  0
   -1.0947   -3.9407   -1.1951 C   0  0  0  0  0  0  0  0  0  0  0  0
   -2.0160   -4.1852   -0.0287 C   0  0  0  0  0  3  0  0  0  0  0  0
   -2.3939   -2.8526    0.5935 C   0  0  2  0  0  0  0  0  0  0  0  0
   -3.1793   -3.0823    1.8742 C   0  0  0  0  0  0  0  0  0  0  0  0
   -3.1768   -2.0540   -0.4134 C   0  0  0  0  0  3  0  0  0  0  0  0
   -3.2086   -0.6098    0.0603 C   0  0  0  0  0  0  0  0  0  0  0  0
   -4.1444    0.2175   -0.8114 C   0  0  1  0  0  0  0  0  0  0  0  0
   -5.2732    0.6045    0.0295 N   0  0  0  0  0  2  0  0  0  0  0  0
   -3.4305    1.4897   -1.2325 C   0  0  0  0  0  0  0  0  0  0  0  0
   -4.3198    2.7074   -1.0546 C   0  0  0  0  0  0  0  0  0  0  0  0
   -3.6781    3.6978   -0.1197 C   0  0  0  0  0  0  0  0  0  0  0  0
   -2.3230    3.7956   -0.4271 O   0  0  0  0  0  0  0  0  0  0  0  0
   -1.6622    4.0557    0.7806 C   0  0  0  0  0  0  0  0  0  0  0  0
   -0.4618    4.7349    0.5204 O   0  0  0  0  0  0  0  0  0  0  0  0
    0.6954    4.0962    1.6317 S   0  0  0  0  0  0  0  0  0  0  0  0
    1.4936    2.6884    0.7907 C   0  0  0  0  0  0  0  0  0  0  0  0
    2.5155    3.2838   -0.1658 C   0  0  0  0  0  0  0  0  0  0  0  0
    3.8591    2.7295    0.2068 C   0  0  0  0  0  0  0  0  0  0  0  0
    4.4785    1.8784   -0.8617 C   0  0  2  0  0  0  0  0  0  0  0  0
    3.5288    1.2701   -1.9291 C   0  0  0  0  0  0  0  0  0  0  0  0
    4.1323    0.5064   -0.9144 C   0  0  1  0  0  0  0  0  0  0  0  0
  1  2  1  0
  2  3  1  1
  2  4  1  0
  4  5  1  0
  5  6  1  0
  6  7  1  0
  7  8  1  1
  7  9  1  0
  9 10  1  0
 10 11  1  0
 11 12  1  0
 12 13  1  1
 12 14  1  0
 14 15  1  0
 15 16  1  0
 16 17  1  1
 16 18  1  0
 18 19  1  0
 19 20  1  0
 20 21  1  0
 21 22  1  0
 22 23  1  0
 23 24  1  0
 24 25  1  0
 25 26  1  0
 26 27  1  0
 28 27  1  1
 28 29  1  0
 28 30  1  0
 30  1  1  6
 30  2  1  0
 30 29  1  0
M  RAD  4   9   2  11   2  14   2  17   2
M  END
>  <fragInfo>  (1) 
1 2 3 4 5 6 7 8 9 10 11 12 13 14 15 16 17 18 19 20 21 22 23 24 25 26 27 28 29 30


>  <torsionInfo>  (1) 


>  <atomInfo>  (1) 
1  -0.0408158C 
2  -0.0260751C 
3  -0.0590800C 
4  -0.0472879C 
5  -0.0525022C 
6  -0.0504157C 
7  -0.0411496C 
8  -0.0622340C 
9  -0.0354561C 
10 -0.0465208C 
11 -0.0351705C 
12 -0.0379715C 
13 -0.0619573C 
14 -0.0338759C 
15 -0.0330120C 
16 0.02162578C 
17 -0.2545010NA
18 -0.0342038C 
19 -0.0279592C 
20 0.04954397C 
21 -0.3542945OA
22 0.15955400C 
23 -0.2873541OA
24 -0.0058857SA
25 0.01988122C 
26 -0.0416318C 
27 -0.0490076C 
28 -0.0346063C 
29 -0.0433802C 
30 -0.0206660C 


$$$$
