
     RDKit          3D

 16 15  0  0  0  0  0  0  0  0999 V2000
   -6.3446    1.8496   -0.5284 C   0  0  0  0  0  0  0  0  0  0  0  0
   -5.8709    0.5677   -0.1651 O   0  0  0  0  0  0  0  0  0  0  0  0
   -4.7211    0.2309    0.4666 C   0  0  0  0  0  0  0  0  0  0  0  0
   -3.6932   -0.1914   -0.3134 C   0  0  0  0  0  0  0  0  0  0  0  0
   -2.4514   -0.5014    0.5768 C   0  0  0  0  0  0  0  0  0  0  0  0
   -1.4251   -0.9976   -0.0454 C   0  0  0  0  0  0  0  0  0  0  0  0
   -0.1219   -1.3538    0.4414 C   0  0  0  0  0  0  0  0  0  0  0  0
    0.4045   -2.3498    1.3157 C   0  0  0  0  0  0  0  0  0  0  0  0
    0.8122   -0.5116   -0.0948 C   0  0  0  0  0  0  0  0  0  0  0  0
    1.8704    0.1679   -0.3734 C   0  0  0  0  0  0  0  0  0  0  0  0
    2.2629    1.1259    0.7394 C   0  0  0  0  0  0  0  0  0  0  0  0
    3.2996    1.8518    0.0323 O   0  0  0  0  0  0  0  0  0  0  0  0
    4.6961    1.4657    1.0486 S   0  0  0  0  0  0  0  0  0  0  0  0
    5.6483    0.1978   -0.0294 C   0  0  0  0  0  0  0  0  0  0  0  0
    2.5420   -0.2025   -1.5516 C   0  0  0  0  0  0  0  0  0  0  0  0
    3.0924   -1.3491   -1.5871 O   0  0  0  0  0  0  0  0  0  0  0  0
  1  2  1  0
  2  3  1  0
  3  4  2  3
  4  5  1  0
  5  6  2  3
  6  7  1  0
  7  8  1  0
  7  9  2  0
  9 10  2  0
 10 11  1  0
 11 12  1  0
 12 13  1  0
 13 14  1  0
 10 15  1  0
 15 16  2  0
M  END
>  <fragInfo>  (1) 
7 8 9 10
1 2
3 4
5 6
11
12
13 14
15 16


>  <torsionInfo>  (1) 
6 7 3 0
10 11 0 4
10 15 0 7
2 3 1 2
4 5 2 3
11 12 4 5
12 13 5 6


>  <atomInfo>  (1) 
1  0.07660055C 
2  -0.5043678OA
3  0.08241042C 
4  -0.0275226C 
5  -0.0583409C 
6  -0.0514492C 
7  -0.0086359C 
8  -0.0323422C 
9  -0.1081988C 
10 0.06101115C 
11 0.09683859C 
12 -0.3101027OA
13 -0.0120636SA
14 0.00823480C 
15 0.15563701C 
16 -0.2974673OA


$$$$
