
     RDKit          3D

 49 50  0  0  0  0  0  0  0  0999 V2000
   -8.2077    1.0265    1.4989 C   0  0  0  0  0  0  0  0  0  0  0  0
   -7.6021   -0.3495    1.6307 C   0  0  1  0  0  0  0  0  0  0  0  0
   -8.5591   -1.3614    2.1986 C   0  0  0  0  0  0  0  0  0  0  0  0
   -9.4748   -1.9617    1.1913 C   0  0  2  0  0  0  0  0  0  0  0  0
   -9.8297   -3.2511    1.6435 O   0  0  0  0  0  0  0  0  0  0  0  0
   -8.8562   -2.1412   -0.1723 C   0  0  2  0  0  0  0  0  0  0  0  0
   -9.3299   -3.3056   -0.7980 O   0  0  0  0  0  0  0  0  0  0  0  0
   -7.3503   -2.1756   -0.0127 C   0  0  1  0  0  0  0  0  0  0  0  0
   -6.7648   -2.4755   -1.2328 O   0  0  0  0  0  0  0  0  0  0  0  0
   -6.8980   -0.8098    0.4002 C   0  0  1  0  0  0  0  0  0  0  0  0
   -7.0190    0.1547   -0.6696 N   0  0  0  0  0  0  0  0  0  0  0  0
   -6.4020    1.4015   -0.3186 C   0  0  0  0  0  3  0  0  0  0  0  0
   -4.9014    1.2164   -0.0917 C   0  0  2  0  0  0  0  0  0  0  0  0
   -4.3201    0.6955   -1.3884 C   0  0  0  0  0  0  0  0  0  0  0  0
   -4.7658    0.2594    0.9166 O   0  0  0  0  0  0  0  0  0  0  0  0
   -3.4579   -0.0164    1.2346 C   0  0  0  0  0  3  0  0  0  0  0  0
   -3.0234   -1.1406    0.5275 O   0  0  0  0  0  0  0  0  0  0  0  0
   -1.8297   -0.8979    0.0843 O   0  0  0  0  0  0  0  0  0  0  0  0
   -0.8646   -1.3122    0.8406 O   0  0  0  0  0  0  0  0  0  0  0  0
    0.0446   -0.3516    1.2072 C   0  0  1  0  0  0  0  0  0  0  0  0
    1.0141   -0.9196    2.0049 O   0  0  0  0  0  0  0  0  0  0  0  0
    0.6179    0.3211   -0.0219 C   0  0  2  0  0  0  0  0  0  0  0  0
    1.5249    1.2742    0.4082 O   0  0  0  0  0  0  0  0  0  0  0  0
   -0.5441    0.9372   -0.7723 C   0  0  2  0  0  0  0  0  0  0  0  0
   -0.1375    1.3854   -2.0315 O   0  0  0  0  0  0  0  0  0  0  0  0
   -1.0859    2.0358   -0.1115 O   0  0  0  0  0  0  0  0  0  0  0  0
   -0.3936    2.3950    1.0194 C   0  0  0  0  0  3  0  0  0  0  0  0
    0.3362    3.7168    0.8877 C   0  0  2  0  0  0  0  0  0  0  0  0
   -0.1674    4.4530   -0.1821 O   0  0  0  0  0  0  0  0  0  0  0  0
    1.6890    3.4094    0.7234 O   0  0  0  0  0  0  0  0  0  0  0  0
    2.0324    3.6749   -0.5873 C   0  0  0  0  0  3  0  0  0  0  0  0
    2.8218    2.5174   -1.1305 C   0  0  0  0  0  3  0  0  0  0  0  0
    2.7182    1.2645   -0.2902 C   0  0  1  0  0  0  0  0  0  0  0  0
    3.7666    1.2034    0.5941 O   0  0  0  0  0  0  0  0  0  0  0  0
    5.0067    1.1885   -0.0074 C   0  0  2  0  0  0  0  0  0  0  0  0
    5.2910    2.4002   -0.8509 C   0  0  0  0  0  3  0  0  0  0  0  0
    5.2382    3.5507   -0.0670 O   0  0  0  0  0  0  0  0  0  0  0  0
    5.2653   -0.0992   -0.7198 C   0  0  0  0  0  3  0  0  0  0  0  0
    4.9508   -1.2426    0.2096 C   0  0  0  0  0  0  0  0  0  0  0  0
    5.8736   -1.1846    1.4000 C   0  0  0  0  0  0  0  0  0  0  0  0
    7.2921   -1.3086    0.9814 C   0  0  1  0  0  0  0  0  0  0  0  0
    7.5272   -2.6010    0.2655 C   0  0  2  0  0  0  0  0  0  0  0  0
    7.1974   -3.6417    1.1634 O   0  0  0  0  0  0  0  0  0  0  0  0
    8.9758   -2.7352   -0.1633 C   0  0  0  0  0  0  0  0  0  0  0  0
    9.1620   -4.0520   -0.8793 C   0  0  0  0  0  3  0  0  0  0  0  0
    8.9405   -3.8977   -2.2381 O   0  0  0  0  0  0  0  0  0  0  0  0
    7.9445   -0.1531    0.3529 C   0  0  0  0  0  0  0  0  0  0  0  0
    7.9759    0.9621    1.1838 O   0  0  0  0  0  0  0  0  0  0  0  0
    8.5783    1.9417    0.5341 O   0  0  0  0  0  0  0  0  0  0  0  0
  2  1  1  6
  2  3  1  0
  3  4  1  0
  4  5  1  1
  4  6  1  0
  6  7  1  1
  6  8  1  0
  8  9  1  6
  8 10  1  0
 10 11  1  6
 11 12  1  0
 12 13  1  0
 13 14  1  6
 13 15  1  0
 15 16  1  0
 16 17  1  0
 17 18  1  0
 18 19  1  0
 19 20  1  0
 20 21  1  6
 20 22  1  0
 22 23  1  1
 22 24  1  0
 24 25  1  6
 24 26  1  0
 26 27  1  0
 27 28  1  0
 28 29  1  6
 28 30  1  0
 30 31  1  0
 31 32  1  0
 32 33  1  0
 33 34  1  1
 34 35  1  0
 35 36  1  6
 36 37  1  0
 35 38  1  0
 38 39  1  0
 39 40  1  0
 41 40  1  6
 41 42  1  0
 42 43  1  1
 42 44  1  0
 44 45  1  0
 45 46  1  0
 41 47  1  0
 47 48  1  0
 48 49  1  0
 10  2  1  0
 33 23  1  0
M  RAD  8  12   2  16   2  27   2  31   2  32   2  36   2  38   2  45   2
M  END
>  <fragInfo>  (1) 
22 23 24 25 26 27 28 29 30 31 32 33
1 2 3 4 5 6 7 8 9 10
11
12
13 14
15
16
17
18
19
20 21
34
35
36 37
38
39
40
41
42 43
44
45 46
47
48 49


>  <torsionInfo>  (1) 
20 22 10 0
33 34 0 11
10 11 1 2
11 12 2 3
12 13 3 4
13 15 4 5
15 16 5 6
16 17 6 7
17 18 7 8
18 19 8 9
19 20 9 10
34 35 11 12
35 36 12 13
35 38 12 14
38 39 14 15
39 40 15 16
40 41 16 17
41 42 17 18
41 47 17 21
42 44 18 19
44 45 19 20
47 48 21 22


>  <atomInfo>  (1) 
1  -0.0608233C 
2  -0.0236268C 
3  -0.0201755C 
4  0.08280077C 
5  -0.3903155OA
6  0.10722524C 
7  -0.3876533OA
8  0.09793080C 
9  -0.3886791OA
10 0.03848614C 
11 -0.3043247NA
12 0.05132519C 
13 0.07508370C 
14 -0.0369400C 
15 -0.3408689OA
16 0.24902176C 
17 -0.1680615OA
18 -0.0623281OA
19 -0.1709674OA
20 0.22315332C 
21 -0.3634013OA
22 0.16479404C 
23 -0.3382376OA
24 0.18664141C 
25 -0.3656465OA
26 -0.3384292OA
27 0.14255324C 
28 0.18399115C 
29 -0.3657221OA
30 -0.3435480OA
31 0.09573453C 
32 0.04925598C 
33 0.16442887C 
34 -0.3458936OA
35 0.09235237C 
36 0.10892710C 
37 -0.3875860OA
38 -0.0067767C 
39 -0.0470544C 
40 -0.0452681C 
41 0.01152996C 
42 0.06167432C 
43 -0.3926447OA
44 0.00212545C 
45 0.08243485C 
46 -0.3903314OA
47 0.08720914C 
48 -0.2390653OA
49 -0.2518116OA


$$$$
