
     RDKit          3D

 13 12  0  0  0  0  0  0  0  0999 V2000
    2.4921    2.7813    0.2830 C   0  0  0  0  0  0  0  0  0  0  0  0
    3.2580    1.6410    0.4771 O   0  0  0  0  0  0  0  0  0  0  0  0
    3.0403    0.7063   -0.5215 C   0  0  0  0  0  3  0  0  0  0  0  0
    1.7130    0.3410   -0.6279 O   0  0  0  0  0  0  0  0  0  0  0  0
    1.3227   -0.5836    0.3473 C   0  0  2  0  0  0  0  0  0  0  0  0
    1.8581   -1.9411   -0.0867 C   0  0  0  0  0  0  0  0  0  0  0  0
    0.7189   -2.9179   -0.3461 C   0  0  0  0  0  2  0  0  0  0  0  0
   -0.1923   -0.6174    0.2956 C   0  0  0  0  0  3  0  0  0  0  0  0
   -0.7812    0.0840    1.3372 O   0  0  0  0  0  0  0  0  0  0  0  0
   -2.1567   -0.1922    1.2606 C   0  0  0  0  0  3  0  0  0  0  0  0
   -2.8894    0.9550    0.6229 C   0  0  0  0  0  3  0  0  0  0  0  0
   -4.0095    0.5280   -0.2782 C   0  0  0  0  0  0  0  0  0  0  0  0
   -4.3739   -0.7845   -0.0418 O   0  0  0  0  0  0  0  0  0  0  0  0
  1  2  1  0
  2  3  1  0
  3  4  1  0
  4  5  1  0
  5  6  1  6
  6  7  1  0
  5  8  1  0
  8  9  1  0
  9 10  1  0
 10 11  1  0
 11 12  1  0
 12 13  1  0
M  RAD  5   3   2   7   3   8   2  10   2  11   2
M  END
>  <fragInfo>  (1) 
1 2
3
4
5
6 7
8
9
10
11
12 13


>  <torsionInfo>  (1) 
2 3 0 1
3 4 1 2
4 5 2 3
5 6 3 4
5 8 3 5
8 9 5 6
9 10 6 7
10 11 7 8
11 12 8 9


>  <atomInfo>  (1) 
1  0.03885652C 
2  -0.3513301OA
3  0.20903544C 
4  -0.3417657OA
5  0.08999426C 
6  -0.0205255C 
7  -0.0324260C 
8  0.11293402C 
9  -0.3663472OA
10 0.09010486C 
11 0.01844251C 
12 0.04891232C 
13 -0.3959695OA


$$$$
