
     RDKit          3D

 15 15  0  0  0  0  0  0  0  0999 V2000
   -1.5882   -0.4442    0.9960 O   0  0  0  0  0  0  0  0  0  0  0  0
   -1.8322   -0.9831   -0.1106 C   0  0  0  0  0  0  0  0  0  0  0  0
   -0.9220   -1.9458   -0.6058 N   0  0  0  0  0  0  0  0  0  0  0  0
    0.2388   -2.2457    0.2059 C   0  0  0  0  0  0  0  0  0  0  0  0
    1.1875   -1.0931    0.0296 C   0  0  0  0  0  0  0  0  0  0  0  0
    2.3934   -1.0655    0.7184 C   0  0  0  0  0  0  0  0  0  0  0  0
    3.2731   -0.0150    0.5652 C   0  0  0  0  0  0  0  0  0  0  0  0
    2.9659    1.0324   -0.2810 C   0  0  0  0  0  0  0  0  0  0  0  0
    3.8375    2.0848   -0.4408 F   0  0  0  0  0  0  0  0  0  0  0  0
    1.7861    1.0190   -0.9632 C   0  0  0  0  0  0  0  0  0  0  0  0
    0.9174   -0.0322   -0.8033 C   0  0  0  0  0  0  0  0  0  0  0  0
   -3.0519   -0.6004   -0.8580 C   0  0  0  0  0  0  0  0  0  0  0  0
   -3.8308    0.4454   -0.0720 C   0  0  0  0  0  0  0  0  0  0  0  0
   -2.9009    1.6332    0.0918 C   0  0  0  0  0  0  0  0  0  0  0  0
   -2.4737    2.2102   -1.5284 Cl  0  0  0  0  0  0  0  0  0  0  0  0
  1  2  2  0
  2  3  1  0
  3  4  1  0
  4  5  1  0
  5  6  2  0
  6  7  1  0
  7  8  2  0
  8  9  1  0
  8 10  1  0
 10 11  2  0
  2 12  1  0
 12 13  1  0
 13 14  1  0
 14 15  1  0
 11  5  1  0
M  END
>  <fragInfo>  (1) 
5 6 7 8 9 10 11
1 2 3
4
12
13
14 15


>  <torsionInfo>  (1) 
4 5 2 0
2 12 1 3
3 4 1 2
12 13 3 4
13 14 4 5


>  <atomInfo>  (1) 
1  -0.2751334OA
2  0.21980377C 
3  -0.3520280N 
4  0.04271990C 
5  -0.0285954A 
6  -0.0543510A 
7  -0.0259827A 
8  0.12272948A 
9  -0.2070121F 
10 -0.0259827A 
11 -0.0543510A 
12 0.02760571C 
13 -0.0308091C 
14 0.02278954C 
15 -0.1267015Cl


$$$$
