
     RDKit          2D

 60 62  0  0  0  0  0  0  0  0999 V2000
   11.4817   -9.8548    0.0000 O   0  0  0  0  0  0  0  0  0  0  0  0
   10.2423  -10.6997    0.0000 C   0  0  0  0  0  0  0  0  0  0  0  0
   10.3544  -12.1955    0.0000 C   0  0  0  0  0  0  0  0  0  0  0  0
   11.7059  -12.8464    0.0000 C   0  0  0  0  0  0  0  0  0  0  0  0
   11.8180  -14.3422    0.0000 C   0  0  0  0  0  0  0  0  0  0  0  0
   13.1694  -14.9930    0.0000 C   0  0  0  0  0  0  0  0  0  0  0  0
   13.2815  -16.4888    0.0000 C   0  0  0  0  0  0  0  0  0  0  0  0
   14.6330  -17.1396    0.0000 N   0  0  0  0  0  0  0  0  0  0  0  0
   15.8723  -16.2947    0.0000 C   0  0  0  0  0  0  0  0  0  0  0  0
   17.2238  -16.9455    0.0000 C   0  0  0  0  0  0  0  0  0  0  0  0
   18.5447  -16.2347    0.0000 C   0  0  0  0  0  0  0  0  0  0  0  0
   19.6289  -17.2713    0.0000 C   0  0  0  0  0  0  0  0  0  0  0  0
   18.9781  -18.6227    0.0000 C   0  0  0  0  0  0  0  0  0  0  0  0
   19.6889  -19.9436    0.0000 Cl  0  0  0  0  0  0  0  0  0  0  0  0
   17.4916  -18.4214    0.0000 C   0  0  0  0  0  0  0  0  0  0  0  0
   15.7602  -14.7989    0.0000 N   0  0  0  0  0  0  0  0  0  0  0  0
   14.4088  -14.1480    0.0000 C   0  0  0  0  0  0  0  0  0  0  0  0
   14.2967  -12.6522    0.0000 C   0  0  0  0  0  0  0  0  0  0  0  0
   15.5361  -11.8072    0.0000 N   0  0  0  0  0  0  0  0  0  0  0  0
    8.8909  -10.0489    0.0000 C   0  0  0  0  0  0  0  0  0  0  0  0
    8.7788   -8.5531    0.0000 C   0  0  0  0  0  0  0  0  0  0  0  0
    7.4273   -7.9023    0.0000 C   0  0  0  0  0  0  0  0  0  0  0  0
    7.3152   -6.4065    0.0000 C   0  0  0  0  0  0  0  0  0  0  0  0
    5.9638   -5.7557    0.0000 C   0  0  0  0  0  0  0  0  0  0  0  0
    4.7244   -6.6006    0.0000 C   0  0  0  0  0  0  0  0  0  0  0  0
    4.8365   -8.0964    0.0000 C   0  0  0  0  0  0  0  0  0  0  0  0
    3.5972   -8.9414    0.0000 C   0  0  0  0  0  0  0  0  0  0  0  0
    3.7093  -10.4372    0.0000 C   0  0  0  0  0  0  0  0  0  0  0  0
    2.4699  -11.2822    0.0000 C   0  0  0  0  0  0  0  0  0  0  0  0
    1.2305  -12.1272    0.0000 C   0  0  0  0  0  0  0  0  0  0  0  0
   -0.0088  -12.9722    0.0000 C   0  0  0  0  0  0  0  0  0  0  0  0
    0.1033  -14.4680    0.0000 C   0  0  0  0  0  0  0  0  0  0  0  0
   -1.1361  -15.3130    0.0000 C   0  0  0  0  0  0  0  0  0  0  0  0
   -1.0240  -16.8088    0.0000 C   0  0  0  0  0  0  0  0  0  0  0  0
   -2.2633  -17.6537    0.0000 C   0  0  0  0  0  0  0  0  0  0  0  0
    5.8517   -4.2598    0.0000 N   0  0  0  0  0  2  0  0  0  0  0  0
    4.5002   -3.6090    0.0000 C   0  0  0  0  0  0  0  0  0  0  0  0
    4.3881   -2.1132    0.0000 C   0  0  0  0  0  0  0  0  0  0  0  0
    3.0367   -1.4624    0.0000 C   0  0  0  0  0  0  0  0  0  0  0  0
    3.3705    0.0000    0.0000 C   0  0  0  0  0  0  0  0  0  0  0  0
    3.0367    1.4624    0.0000 C   0  0  0  0  0  0  0  0  0  0  0  0
    2.1015    2.6351    0.0000 C   0  0  0  0  0  0  0  0  0  0  0  0
    0.7500    3.2860    0.0000 C   0  0  0  0  0  0  0  0  0  0  0  0
   -0.7500    3.2860    0.0000 C   0  0  0  0  0  0  0  0  0  0  0  0
   -2.1015    2.6351    0.0000 C   0  0  0  0  0  0  0  0  0  0  0  0
   -3.0367    1.4624    0.0000 C   0  0  0  0  0  0  0  0  0  0  0  0
   -3.3705    0.0000    0.0000 N   0  0  0  0  0  0  0  0  0  0  0  0
   -3.0367   -1.4624    0.0000 C   0  0  0  0  0  0  0  0  0  0  0  0
   -2.1015   -2.6351    0.0000 C   0  0  0  0  0  0  0  0  0  0  0  0
   -0.7500   -3.2860    0.0000 C   0  0  0  0  0  0  0  0  0  0  0  0
    0.7500   -3.2860    0.0000 C   0  0  0  0  0  0  0  0  0  0  0  0
    2.1015   -2.6351    0.0000 N   0  0  0  0  0  3  0  0  0  0  0  0
    3.0367   -3.8079    0.0000 C   0  0  0  0  0  0  0  0  0  0  0  0
    2.4887   -5.2042    0.0000 C   0  0  0  0  0  0  0  0  0  0  0  0
    3.4239   -6.3769    0.0000 C   0  0  0  0  0  0  0  0  0  0  0  0
    2.8759   -7.7733    0.0000 C   0  0  0  0  0  0  0  0  0  0  0  0
    1.3927   -7.9968    0.0000 C   0  0  0  0  0  0  0  0  0  0  0  0
    0.8446   -9.3931    0.0000 C   0  0  0  0  0  0  0  0  0  0  0  0
   -0.6386   -9.6167    0.0000 C   0  0  0  0  0  0  0  0  0  0  0  0
   -1.1866  -11.0130    0.0000 O   0  0  0  0  0  1  0  0  0  0  0  0
  1  2  2  0
  2  3  1  0
  3  4  1  0
  4  5  2  3
  5  6  1  0
  6  7  2  0
  7  8  1  0
  8  9  1  0
  9 10  1  0
 10 11  2  0
 11 12  1  0
 12 13  2  0
 13 14  1  0
 13 15  1  0
  9 16  2  0
 16 17  1  0
 17 18  2  3
 18 19  1  0
  2 20  1  0
 20 21  1  0
 21 22  1  0
 22 23  1  0
 23 24  1  0
 24 25  1  0
 25 26  1  0
 26 27  2  3
 27 28  1  0
 28 29  2  0
 29 30  2  0
 30 31  2  0
 31 32  1  0
 32 33  2  3
 33 34  1  0
 34 35  2  0
 24 36  1  0
 36 37  1  0
 37 38  2  3
 38 39  1  0
 39 40  2  3
 40 41  1  0
 41 42  2  3
 42 43  1  0
 43 44  2  3
 44 45  1  0
 45 46  2  3
 46 47  1  0
 47 48  1  0
 48 49  2  3
 49 50  1  0
 50 51  2  3
 51 52  1  0
 52 53  1  0
 53 54  1  0
 54 55  2  3
 55 56  1  0
 56 57  1  0
 57 58  2  3
 58 59  1  0
 59 60  1  0
 17  6  1  0
 15 10  1  0
 52 39  1  0
M  CHG  3  36   1  52   1  60  -1
M  RAD  2  36   3  52   2
M  END
>  <fragInfo>  (1) 
39 40 41 42 43 44 45 46 47 48 49 50 51 52
1 2
3
4 5
6 7 8 9 16 17 18 19
10 11 12 13 14 15
20
21
22
23
24
25
26 27
28 29 30 31
32 33
34 35
36
37 38
53
54 55
56
57 58
59 60


>  <torsionInfo>  (1) 
38 39 17 0
52 53 0 18
2 3 1 2
2 20 1 6
3 4 2 3
5 6 3 4
9 10 4 5
20 21 6 7
21 22 7 8
22 23 8 9
23 24 9 10
24 25 10 11
24 36 10 16
25 26 11 12
27 28 12 13
31 32 13 14
33 34 14 15
36 37 16 17
53 54 18 19
55 56 19 20
56 57 20 21
58 59 21 22


>  <atomInfo>  (1) 
1  -0.2993665OA
2  0.13616115C 
3  0.02450494C 
4  -0.0764491C 
5  -0.0548526C 
6  0.01745766C 
7  0.01192374C 
8  -0.3457350N 
9  0.13377092C 
10 9.21274464C 
11 -0.0538188C 
12 -0.0469073C 
13 0.02258460C 
14 -0.0887850Cl
15 0.01191654C 
16 -0.2288634NA
17 0.08953160C 
18 0.02073412C 
19 -0.4028490N 
20 0.00640515C 
21 -0.0461264C 
22 -0.0467678C 
23 0.01119055C 
24 0.20300020C 
25 0.02932254C 
26 -0.0775767C 
27 -0.0576370C 
28 -0.0118497C 
29 -0.0702578C 
30 -0.0702464C 
31 -0.0115371C 
32 -0.0538917C 
33 -0.0622199C 
34 -0.0694718C 
35 -0.0990654C 
36 0.09733601N 
37 0.21622221C 
38 0.06930560C 
39 0.19153720C 
40 0.00483383C 
41 -0.0561348C 
42 -0.0620393C 
43 -0.0622112C 
44 -0.0608227C 
45 -0.0461733C 
46 0.00044214C 
47 -0.3676350N 
48 0.00064712C 
49 -0.0407117C 
50 -0.0017707C 
51 0.15011885C 
52 -0.0997541N 
53 0.15210458C 
54 -0.0282578C 
55 -0.0789823C 
56 -0.0167459C 
57 -0.0860998C 
58 -0.1049506C 
59 -0.1205520C 
60 -0.8514759OA


$$$$
