
     RDKit          3D

 32 35  0  0  0  0  0  0  0  0999 V2000
    1.5100   -1.9493   -0.7961 C   0  0  0  0  0  0  0  0  0  0  0  0
    1.3289   -1.8993   -2.1889 O   0  0  0  0  0  0  0  0  0  0  0  0
    0.1336   -1.2844   -2.5234 C   0  0  0  0  0  3  0  0  0  0  0  0
    0.2681    0.0623   -2.8131 O   0  0  0  0  0  0  0  0  0  0  0  0
   -0.8985    0.7698   -2.4447 C   0  0  2  0  0  0  0  0  0  0  0  0
   -0.6821    2.2117   -2.8521 C   0  0  0  0  0  0  0  0  0  0  0  0
    0.5348    2.7700   -2.1323 C   0  0  0  0  0  0  0  0  0  0  0  0
   -0.9989    0.7137   -0.9582 C   0  0  1  0  0  0  0  0  0  0  0  0
   -1.8671    1.7647   -0.3603 C   0  0  0  0  0  3  0  0  0  0  0  0
   -2.9490    1.0452    0.4368 C   0  0  2  0  0  0  0  0  0  0  0  0
   -2.2861   -0.2552    0.7605 C   0  0  1  0  0  0  0  0  0  0  0  0
   -0.9995   -0.1896    1.4694 C   0  0  0  0  0  0  0  0  0  0  0  0
   -0.5275    0.3949    2.4420 O   0  0  0  0  0  0  0  0  0  0  0  0
   -3.1722   -1.2389    1.1732 O   0  0  0  0  0  0  0  0  0  0  0  0
   -4.1973   -0.7541    1.8374 O   0  0  0  0  0  0  0  0  0  0  0  0
   -5.2237   -0.5465    0.9262 C   0  0  0  0  0  0  0  0  0  0  0  0
   -5.9876    0.5277    1.3133 O   0  0  0  0  0  0  0  0  0  0  0  0
   -6.1910    1.4622    0.2997 C   0  0  0  0  0  3  0  0  0  0  0  0
   -4.8828    1.8819   -0.3387 C   0  0  0  0  0  0  0  0  0  0  0  0
   -3.9986    0.8094   -0.4471 O   0  0  0  0  0  0  0  0  0  0  0  0
   -1.5226   -0.6310   -0.4956 C   0  0  2  0  0  0  0  0  0  0  0  0
   -0.4640   -1.1762    0.4752 C   0  0  1  0  0  0  0  0  0  0  0  0
    0.8719   -0.8095   -0.0859 C   0  0  1  0  0  0  0  0  0  0  0  0
    1.6768   -0.0931    0.7578 O   0  0  0  0  0  0  0  0  0  0  0  0
    2.7320    0.4460    0.0333 C   0  0  0  0  0  0  0  0  0  0  0  0
    3.4941   -0.5536   -0.5606 O   0  0  0  0  0  0  0  0  0  0  0  0
    3.9898   -1.3442    0.4941 C   0  0  0  0  0  3  0  0  0  0  0  0
    5.4289   -1.1352    0.5167 N   0  0  0  0  0  0  0  0  0  0  0  0
    6.0266   -2.3123    0.2429 O   0  0  0  0  0  0  0  0  0  0  0  0
    5.8297   -0.5863    1.6999 O   0  0  0  0  0  0  0  0  0  0  0  0
    6.4341    0.6604    1.6998 C   0  0  0  0  0  0  0  0  0  0  0  0
    6.5893    1.2389    0.5997 O   0  0  0  0  0  0  0  0  0  0  0  0
  1  2  1  0
  2  3  1  0
  3  4  1  0
  4  5  1  0
  5  6  1  1
  6  7  1  0
  5  8  1  0
  8  9  1  6
 10  9  1  6
 10 11  1  0
 11 12  1  0
 12 13  2  0
 11 14  1  1
 14 15  1  0
 15 16  1  0
 16 17  1  0
 17 18  1  0
 18 19  1  0
 19 20  1  0
 21  8  1  1
 21 22  1  0
 22 23  1  0
 23 24  1  1
 24 25  1  0
 25 26  1  0
 26 27  1  0
 27 28  1  0
 28 29  1  0
 28 30  1  0
 30 31  1  0
 31 32  2  0
 23  1  1  0
 20 10  1  0
 21 11  1  0
 22 12  1  1
M  RAD  4   3   2   9   2  18   2  27   2
M  END
>  <fragInfo>  (1) 
1 2 3 4 5 8 9 10 11 12 13 14 15 16 17 18 19 20 21 22 23
6 7
24
25
26
27
28 29
30
31 32


>  <torsionInfo>  (1) 
5 6 0 1
23 24 0 2
24 25 2 3
25 26 3 4
26 27 4 5
27 28 5 6
28 30 6 7
30 31 7 8


>  <atomInfo>  (1) 
1  0.07707167C 
2  -0.3452037OA
3  0.20931639C 
4  -0.3443156OA
5  0.06421228C 
6  -0.0291622C 
7  -0.0628974C 
8  -0.0019967C 
9  1.42533968C 
10 0.10084477C 
11 0.19173968C 
12 0.17669453C 
13 -0.2957361OA
14 -0.2164592OA
15 -0.2068171OA
16 0.18091289C 
17 -0.3437756OA
18 0.11230799C 
19 0.07617651C 
20 -0.3714592OA
21 0.01909447C 
22 0.05620401C 
23 0.09402425C 
24 -0.3489344OA
25 0.14935516C 
26 -0.3266451OA
27 0.21852885C 
28 0.01653198NA
29 -0.2782457OA
30 -0.3426917OA
31 0.31568613C 
32 -0.2540641OA


$$$$
