
     RDKit          3D

 45 48  0  0  0  0  0  0  0  0999 V2000
   -5.9100   -0.8488    0.4365 C   0  0  0  0  0  0  0  0  0  0  0  0
   -6.9575   -0.2890   -0.1465 C   0  0  0  0  0  0  0  0  0  0  0  0
   -7.9651   -1.3108   -0.5840 C   0  0  0  0  0  0  0  0  0  0  0  0
   -7.4211    1.0619   -0.4906 C   0  0  0  0  0  0  0  0  0  0  0  0
   -6.7455    2.2068   -0.6051 C   0  0  0  0  0  0  0  0  0  0  0  0
   -5.3116    2.5687   -0.4729 C   0  0  0  0  0  0  0  0  0  0  0  0
   -4.2577    1.8011   -0.1693 C   0  0  0  0  0  0  0  0  0  0  0  0
   -3.2318    2.7829    0.2456 C   0  0  0  0  0  0  0  0  0  0  0  0
   -2.5199    3.3541   -0.9513 C   0  0  0  0  0  0  0  0  0  0  0  0
   -1.3375    4.1172   -0.4812 C   0  0  0  0  0  0  0  0  0  0  0  0
   -1.5250    5.5543   -0.1014 C   0  0  0  0  0  0  0  0  0  0  0  0
   -0.3264    6.1112    0.3153 O   0  0  0  0  0  0  0  0  0  0  0  0
   -0.5420    7.4393    0.6586 C   0  0  0  0  0  0  0  0  0  0  0  0
   -3.9020    0.3622   -0.1458 C   0  0  0  0  0  0  0  0  0  0  0  0
   -4.6562   -0.2725    0.9800 C   0  0  2  0  0  0  0  0  0  0  0  0
   -4.1480   -1.6511    1.3255 C   0  0  0  0  0  0  0  0  0  0  0  0
   -5.4640   -2.2068    0.8268 C   0  0  2  0  0  0  0  0  0  0  0  0
   -5.1566   -3.1460   -0.3187 C   0  0  0  0  0  0  0  0  0  0  0  0
   -4.4163   -4.3398    0.2995 C   0  0  0  0  0  0  0  0  0  0  0  0
   -3.1453   -4.6471   -0.4613 C   0  0  0  0  0  0  0  0  0  0  0  0
   -1.9110   -4.4095    0.3606 C   0  0  0  0  0  0  0  0  0  0  0  0
   -1.0557   -5.6504    0.4858 C   0  0  0  0  0  0  0  0  0  0  0  0
    0.3362   -5.2932    0.9599 C   0  0  0  0  0  0  0  0  0  0  0  0
    1.0772   -4.4633   -0.0839 C   0  0  0  0  0  0  0  0  0  0  0  0
    1.0979   -3.0420    0.4195 C   0  0  0  0  0  0  0  0  0  0  0  0
    1.7650   -2.9253    1.7682 C   0  0  0  0  0  0  0  0  0  0  0  0
    2.4487   -1.5870    1.9220 C   0  0  0  0  0  0  0  0  0  0  0  0
    2.6351   -0.9010    0.5613 C   0  0  2  0  0  0  0  0  0  0  0  0
    4.1165   -0.5919    0.4647 C   0  0  0  0  0  0  0  0  0  0  0  0
    4.4506    0.0938   -0.8430 C   0  0  0  0  0  0  0  0  0  0  0  0
    5.9424    0.3687   -0.8622 C   0  0  0  0  0  0  0  0  0  0  0  0
    6.6651   -0.9683   -0.7447 C   0  0  2  0  0  0  0  0  0  0  0  0
    6.2721   -1.6467    0.5600 C   0  0  0  0  0  0  0  0  0  0  0  0
    7.2282   -1.1387    1.5964 C   0  0  0  0  0  3  0  0  0  0  0  0
    8.2827   -0.3232    0.8790 C   0  0  0  0  0  0  0  0  0  0  0  0
    8.1115   -0.7517   -0.5283 C   0  0  0  0  0  0  0  0  0  0  0  0
    9.0266   -0.9036   -1.3858 N   0  0  0  0  0  0  0  0  0  0  0  0
    8.6928   -1.3228   -2.7063 C   0  0  0  0  0  0  0  0  0  0  0  0
    1.8378    0.3899    0.6258 C   0  0  0  0  0  0  0  0  0  0  0  0
    2.4521    1.4438   -0.2741 C   0  0  0  0  0  0  0  0  0  0  0  0
    1.4875    1.9644   -1.2980 C   0  0  2  0  0  0  0  0  0  0  0  0
    1.9732    3.2096   -1.8199 N   0  0  0  0  0  0  0  0  0  0  0  0
    2.0555    4.1705   -0.7427 C   0  0  0  0  0  0  0  0  0  0  0  0
    0.1105    2.1105   -0.7578 C   0  0  0  0  0  0  0  0  0  0  0  0
   -0.1587    3.5197   -0.4061 C   0  0  0  0  0  0  0  0  0  0  0  0
  1  2  2  3
  2  3  1  0
  2  4  1  0
  4  5  2  3
  5  6  1  0
  6  7  2  3
  7  8  1  0
  8  9  1  0
  9 10  1  0
 10 11  1  0
 11 12  1  0
 12 13  1  0
  7 14  1  0
 15 14  1  6
 15 16  1  0
 16 17  1  0
 17 18  1  6
 18 19  1  0
 19 20  1  0
 20 21  1  0
 21 22  1  0
 22 23  1  0
 23 24  1  0
 24 25  1  0
 25 26  1  0
 26 27  1  0
 27 28  1  0
 28 29  1  1
 29 30  1  0
 30 31  1  0
 32 31  1  1
 32 33  1  0
 33 34  1  0
 34 35  1  0
 35 36  1  0
 36 37  2  3
 37 38  1  0
 28 39  1  0
 39 40  1  0
 40 41  1  0
 41 42  1  1
 42 43  1  0
 41 44  1  0
 44 45  1  0
 15  1  1  0
 17  1  1  0
 10 45  2  3
 36 32  1  0
M  RAD  1  34   2
M  END
>  <fragInfo>  (1) 
1 2 3 4 5 6 7 8 9 10 14 15 16 17 18 19 20 21 22 23 24 25 26 27 28 39 40 41 44 45
11
12 13
29
30
31
32 33 34 35 36 37 38
42 43


>  <torsionInfo>  (1) 
10 11 0 1
28 29 0 3
41 42 0 7
11 12 1 2
29 30 3 4
30 31 4 5
31 32 5 6


>  <atomInfo>  (1) 
1  -0.0607208C 
2  -0.0513564C 
3  -0.0397978C 
4  -0.0593512C 
5  -0.0620498C 
6  -0.0630221C 
7  -0.0693011C 
8  -0.0278688C 
9  -0.0260036C 
10 -0.0483313C 
11 0.06726159C 
12 -0.3803547OA
13 0.03590097C 
14 -0.0250577C 
15 -0.0151659C 
16 -0.0397172C 
17 -0.0188789C 
18 -0.0466415C 
19 -0.0527345C 
20 -0.0532846C 
21 -0.0533056C 
22 -0.0533059C 
23 -0.0533059C 
24 -0.0533057C 
25 -0.0532958C 
26 -0.0530421C 
27 -0.0504466C 
28 -0.0413704C 
29 -0.0504244C 
30 -0.0524154C 
31 -0.0451798C 
32 -0.0029087C 
33 -0.0417053C 
34 -0.0323451C 
35 -0.0114060C 
36 0.01538803C 
37 -0.2971567NA
38 0.02760903C 
39 -0.0489555C 
40 -0.0372116C 
41 0.00987286C 
42 -0.3166925NA
43 -0.0161717C 
44 -0.0192263C 
45 -0.0814823C 


$$$$
