
     RDKit          3D

 12 12  0  0  0  0  0  0  0  0999 V2000
    2.7088   -0.4965    0.4013 O   0  0  0  0  0  0  0  0  0  0  0  0
    2.0184   -1.0140   -0.6838 C   0  0  0  0  0  0  0  0  0  0  0  0
    0.5413   -0.7707   -0.5883 C   0  0  1  0  0  0  0  0  0  0  0  0
   -0.0675   -1.5961    0.4200 N   0  0  0  0  0  0  0  0  0  0  0  0
   -1.4757   -1.7259    0.1393 C   0  0  0  0  0  3  0  0  0  0  0  0
   -2.0695   -0.3454    0.0486 C   0  0  2  0  0  0  0  0  0  0  0  0
   -2.5858   -0.1024   -1.2101 O   0  0  0  0  0  0  0  0  0  0  0  0
   -1.0986    0.7503    0.3808 C   0  0  1  0  0  0  0  0  0  0  0  0
   -0.8641    0.7468    1.7603 O   0  0  0  0  0  0  0  0  0  0  0  0
    0.1807    0.6802   -0.4062 C   0  0  1  0  0  0  0  0  0  0  0  0
    1.1820    1.4016    0.2150 O   0  0  0  0  0  0  0  0  0  0  0  0
    1.5299    2.4722   -0.4768 O   0  0  0  0  0  0  0  0  0  0  0  0
  1  2  1  0
  3  2  1  1
  3  4  1  0
  4  5  1  0
  5  6  1  0
  6  7  1  6
  6  8  1  0
  8  9  1  1
  8 10  1  0
 10 11  1  1
 11 12  1  0
 10  3  1  0
M  RAD  1   5   2
M  END
>  <fragInfo>  (1) 
3 4 5 6 7 8 9 10
1 2
11 12


>  <torsionInfo>  (1) 
2 3 1 0
10 11 0 2


>  <atomInfo>  (1) 
1  -0.3946464OA
2  0.06120152C 
3  0.06278724C 
4  -0.3024271NA
5  0.05404264C 
6  0.09950025C 
7  -0.3886197OA
8  0.11236820C 
9  -0.3874427OA
10 0.13850089C 
11 -0.2314828OA
12 -0.2513789OA


$$$$
