
     RDKit          3D

 18 18  0  0  0  0  0  0  0  0999 V2000
    1.0521    0.5027   -1.3450 C   0  0  0  0  0  0  0  0  0  0  0  0
    2.0654    1.5314   -0.9410 C   0  0  0  0  0  0  0  0  0  0  0  0
    2.8849    1.1185    0.2592 C   0  0  0  0  0  0  0  0  0  0  0  0
    3.9052    0.0742   -0.2078 C   0  0  0  0  0  0  0  0  0  0  0  0
    3.7534   -1.0968    0.7731 C   0  0  0  0  0  0  0  0  0  0  0  0
    2.7217   -2.0268    0.2214 C   0  0  0  0  0  0  0  0  0  0  0  0
    1.3721   -1.4212    0.3944 C   0  0  0  0  0  0  0  0  0  0  0  0
    0.6368   -2.0300    1.4275 O   0  0  0  0  0  0  0  0  0  0  0  0
    0.7309   -0.4416   -0.2153 C   0  0  0  0  0  0  0  0  0  0  0  0
   -0.5927   -0.2422    0.3490 C   0  0  0  0  0  0  0  0  0  0  0  0
   -0.9805   -1.0658    1.3964 O   0  0  0  0  0  0  0  0  0  0  0  0
   -1.4154    0.7041   -0.1227 C   0  0  0  0  0  0  0  0  0  0  0  0
   -2.7225    0.8564    0.4791 C   0  0  0  0  0  0  0  0  0  0  0  0
   -3.5634    1.7110    0.1096 O   0  0  0  0  0  0  0  0  0  0  0  0
   -3.1147   -0.0340    1.5959 C   0  0  0  0  0  0  0  0  0  0  0  0
   -3.7202   -1.1436    1.0579 F   0  0  0  0  0  0  0  0  0  0  0  0
   -1.0439    1.6064   -1.2394 C   0  0  0  0  0  0  0  0  0  0  0  0
   -1.9694    1.3974   -2.2543 F   0  0  0  0  0  0  0  0  0  0  0  0
  1  2  1  0
  2  3  1  0
  3  4  1  0
  4  5  1  0
  5  6  1  0
  6  7  1  0
  7  8  1  0
  7  9  2  3
  9 10  1  0
 10 11  1  0
 10 12  2  3
 12 13  1  0
 13 14  2  0
 13 15  1  0
 15 16  1  0
 12 17  1  0
 17 18  1  0
  9  1  1  0
M  END
>  <fragInfo>  (1) 
1 2 3 4 5 6 7 8 9
10 11 12
13 14
15 16
17 18


>  <torsionInfo>  (1) 
9 10 0 1
12 13 1 2
12 17 1 4
13 15 2 3


>  <atomInfo>  (1) 
1  -0.0208649C 
2  -0.0489691C 
3  -0.0529716C 
4  -0.0528636C 
5  -0.0462294C 
6  0.00509521C 
7  0.09910249C 
8  -0.5118941OA
9  0.03182823C 
10 0.13112214C 
11 -0.5070138OA
12 0.07094959C 
13 0.19564146C 
14 -0.2913159OA
15 0.15228967C 
16 -0.2422629F 
17 0.12168842C 
18 -0.2456354F 


$$$$
