
     RDKit          3D

 19 19  0  0  0  0  0  0  0  0999 V2000
   -0.5115    2.2641   -1.0145 C   0  0  0  0  0  0  0  0  0  0  0  0
   -1.2316    1.2514   -0.5569 C   0  0  0  0  0  0  0  0  0  0  0  0
   -2.4169    0.8397   -1.3698 C   0  0  0  0  0  0  0  0  0  0  0  0
   -3.6674    0.7578   -0.5295 C   0  0  0  0  0  0  0  0  0  0  0  0
   -3.3597    0.5720    0.9388 C   0  0  1  0  0  0  0  0  0  0  0  0
   -4.5170   -0.0456    1.6842 C   0  0  0  0  0  0  0  0  0  0  0  0
   -2.1287   -0.3417    1.0122 C   0  0  0  0  0  0  0  0  0  0  0  0
   -2.3215   -1.3544   -0.1238 C   0  0  0  0  0  0  0  0  0  0  0  0
   -2.0210   -1.0272    2.3397 C   0  0  0  0  0  0  0  0  0  0  0  0
   -0.9471    0.5179    0.6775 C   0  0  1  0  0  0  0  0  0  0  0  0
    0.3558   -0.2021    0.7090 C   0  0  0  0  0  3  0  0  0  0  0  0
    0.5236   -1.2344   -0.3498 C   0  0  0  0  0  0  0  0  0  0  0  0
    1.8808   -1.8835   -0.1931 C   0  0  0  0  0  0  0  0  0  0  0  0
    2.9974   -0.9419   -0.3091 C   0  0  0  0  0  0  0  0  0  0  0  0
    4.3145   -1.4678   -0.1751 N   0  0  0  0  0  0  0  0  0  0  0  0
    4.7792   -2.4621   -1.0998 C   0  0  0  0  0  0  0  0  0  0  0  0
    2.8164    0.3140   -0.5232 C   0  0  0  0  0  0  0  0  0  0  0  0
    2.7941    1.6063   -0.5828 C   0  0  0  0  0  0  0  0  0  0  0  0
    2.6605    2.8373   -0.5341 O   0  0  0  0  0  0  0  0  0  0  0  0
  1  2  2  0
  2  3  1  0
  3  4  1  0
  4  5  1  0
  5  6  1  1
  5  7  1  0
  7  8  1  0
  7  9  1  0
  7 10  1  0
 10 11  1  6
 11 12  1  0
 12 13  1  0
 13 14  1  0
 14 15  1  0
 15 16  1  0
 14 17  2  0
 17 18  2  0
 18 19  2  0
 10  2  1  0
M  RAD  1  11   2
M  END
>  <fragInfo>  (1) 
1 2 3 4 5 6 7 8 9 10
11
12
13
14 17 18 19
15 16


>  <torsionInfo>  (1) 
10 11 0 1
11 12 1 2
12 13 2 3
13 14 3 4
14 15 4 5


>  <atomInfo>  (1) 
1  -0.0995498C 
2  -0.0734589C 
3  -0.0317165C 
4  -0.0464320C 
5  -0.0382383C 
6  -0.0619659C 
7  -0.0260218C 
8  -0.0590686C 
9  -0.0590686C 
10 -0.0120669C 
11 -0.0304948C 
12 -0.0434290C 
13 -0.0042649C 
14 0.06521806C 
15 -0.3845666N 
16 0.00360912C 
17 -0.0052777C 
18 0.17840039C 
19 -0.2239158OA


$$$$
