
     RDKit          3D

 12 11  0  0  0  0  0  0  0  0999 V2000
    4.0755    0.5457   -0.2292 O   0  0  0  0  0  0  0  0  0  0  0  0
    3.1473    0.8539    0.7731 C   0  0  0  0  0  0  0  0  0  0  0  0
    2.0486   -0.1586    0.7917 C   0  0  0  0  0  3  0  0  0  0  0  0
    0.9565    0.2569   -0.1028 N   0  0  0  0  0  0  0  0  0  0  0  0
   -0.1535   -0.5751    0.2535 C   0  0  2  0  0  0  0  0  0  0  0  0
    0.1946   -1.9986   -0.0205 C   0  0  0  0  0  0  0  0  0  0  0  0
   -0.7867   -2.9129    0.2741 O   0  0  0  0  0  0  0  0  0  0  0  0
   -1.4498   -0.1338   -0.3893 C   0  0  1  0  0  0  0  0  0  0  0  0
   -2.4731   -0.9894    0.0043 O   0  0  0  0  0  0  0  0  0  0  0  0
   -1.8029    1.2425    0.1766 C   0  0  2  0  0  0  0  0  0  0  0  0
   -3.0351    1.6138   -0.3769 O   0  0  0  0  0  0  0  0  0  0  0  0
   -0.7215    2.2555   -0.2234 C   0  0  0  0  0  2  0  0  0  0  0  0
  1  2  1  0
  2  3  1  0
  3  4  1  0
  4  5  1  0
  5  6  1  6
  6  7  1  0
  5  8  1  0
  8  9  1  1
  8 10  1  0
 10 11  1  0
 10 12  1  6
M  RAD  2   3   2  12   3
M  END
>  <fragInfo>  (1) 
10 11 12
1 2
3
4
5
6 7
8 9


>  <torsionInfo>  (1) 
8 10 6 0
2 3 1 2
3 4 2 3
4 5 3 4
5 6 4 5
5 8 4 6


>  <atomInfo>  (1) 
1  -0.3946905OA
2  0.06004187C 
3  0.04808498C 
4  -0.3028773NA
5  0.05917609C 
6  0.06106342C 
7  -0.3946489OA
8  0.09765794C 
9  -0.3886922OA
10 0.08505010C 
11 -0.3900515OA
12 -0.0010975C 


$$$$
