
     RDKit          3D

 21 22  0  0  0  0  0  0  0  0999 V2000
   -7.0444    0.3874    1.9953 C   0  0  0  0  0  0  0  0  0  0  0  0
   -5.9001    0.4848    1.3418 C   0  0  0  0  0  0  0  0  0  0  0  0
   -4.9051   -0.6444    1.3809 C   0  0  0  0  0  0  0  0  0  0  0  0
   -4.7323   -1.0779   -0.0761 C   0  0  0  0  0  0  0  0  0  0  0  0
   -4.2223    0.1314   -0.8243 C   0  0  0  0  0  0  0  0  0  0  0  0
   -2.8861    0.5311   -0.1809 C   0  0  2  0  0  0  0  0  0  0  0  0
   -2.4217    1.7562   -0.9802 C   0  0  0  0  0  0  0  0  0  0  0  0
   -2.2197    1.1052   -2.3498 C   0  0  0  0  0  0  0  0  0  0  0  0
   -1.5164   -0.1717   -2.0434 C   0  0  2  0  0  0  0  0  0  0  0  0
   -2.1809   -1.4103   -1.6462 C   0  0  0  0  0  0  0  0  0  0  0  0
   -1.8431   -0.4835   -0.5453 C   0  0  2  0  0  0  0  0  0  0  0  0
   -0.5829   -0.6226    0.2505 C   0  0  0  0  0  0  0  0  0  0  0  0
    0.2072    0.6729    0.2419 C   0  0  0  0  0  0  0  0  0  0  0  0
    1.4097    0.4193    1.0437 N   0  0  0  0  0  0  0  0  0  0  0  0
    2.3839   -0.4761    0.5534 C   0  0  0  0  0  0  0  0  0  0  0  0
    3.6652   -0.2816    0.4933 C   0  0  0  0  0  0  0  0  0  0  0  0
    4.4221    0.8666    0.8983 C   0  0  0  0  0  0  0  0  0  0  0  0
    5.7495    0.8324    0.7339 C   0  0  0  0  0  0  0  0  0  0  0  0
    6.4150   -0.3327    0.1605 C   0  0  0  0  0  0  0  0  0  0  0  0
    7.7259   -0.2862    0.0317 C   0  0  0  0  0  0  0  0  0  0  0  0
    8.4763   -1.2831   -0.4789 F   0  0  0  0  0  0  0  0  0  0  0  0
  1  2  2  0
  2  3  1  0
  3  4  1  0
  4  5  1  0
  6  5  1  6
  6  7  1  0
  7  8  1  0
  9  8  1  6
  9 10  1  0
  9 11  1  0
 11 12  1  1
 12 13  1  0
 13 14  1  0
 14 15  1  0
 15 16  2  3
 16 17  1  0
 17 18  2  3
 18 19  1  0
 19 20  2  3
 20 21  1  0
 11  6  1  0
 11 10  1  0
M  END
>  <fragInfo>  (1) 
6 7 8 9 10 11
1 2
3
4
5
12
13
14
15 16
17 18
19 20 21


>  <torsionInfo>  (1) 
5 6 4 0
11 12 0 5
2 3 1 2
3 4 2 3
4 5 3 4
12 13 5 6
13 14 6 7
14 15 7 8
16 17 8 9
18 19 9 10


>  <atomInfo>  (1) 
1  -0.1030829C 
2  -0.0917537C 
3  -0.0353308C 
4  -0.0495505C 
5  -0.0496108C 
6  -0.0353851C 
7  -0.0496207C 
8  -0.0496004C 
9  -0.0348470C 
10 -0.0436016C 
11 -0.0221147C 
12 -0.0295804C 
13 0.01464728C 
14 -0.3908721N 
15 -0.0036131C 
16 -0.0465019C 
17 -0.0607538C 
18 -0.0599326C 
19 -0.0338515C 
20 0.08664223C 
21 -0.2155430F 


$$$$
