
     RDKit          3D

 15 15  0  0  0  0  0  0  0  0999 V2000
    4.6576    2.1900    0.1362 C   0  0  0  0  0  0  0  0  0  0  0  0
    3.4006    1.5142   -0.0642 O   0  0  0  0  0  0  0  0  0  0  0  0
    3.6979    0.2407   -0.4268 C   0  0  0  0  0  3  0  0  0  0  0  0
    2.6766   -0.4504   -0.9468 O   0  0  0  0  0  0  0  0  0  0  0  0
    1.6696   -0.6851    0.0123 C   0  0  2  0  0  0  0  0  0  0  0  0
    1.6266   -2.2306    0.1636 C   0  0  0  0  0  0  0  0  0  0  0  0
    0.2935   -0.3253   -0.5973 C   0  0  0  0  0  3  0  0  0  0  0  0
   -0.7873   -0.7893    0.4210 C   0  0  1  0  0  0  0  0  0  0  0  0
   -2.0890   -0.3192   -0.2381 C   0  0  0  0  0  3  0  0  0  0  0  0
   -2.9279    0.4078    0.7914 C   0  0  0  0  0  0  0  0  0  0  0  0
   -3.6092    1.5719    0.1327 C   0  0  0  0  0  0  0  0  0  0  0  0
   -2.7963    2.4082   -0.5489 O   0  0  0  0  0  0  0  0  0  0  0  0
   -3.6801    1.5613   -1.2411 O   0  0  0  0  0  0  0  0  0  0  0  0
   -0.8258   -2.2551    0.5885 C   0  0  0  0  0  0  0  0  0  0  0  0
   -1.3068   -2.8391   -0.5613 O   0  0  0  0  0  0  0  0  0  0  0  0
  1  2  1  0
  2  3  1  0
  3  4  1  0
  4  5  1  0
  5  6  1  6
  5  7  1  0
  8  7  1  6
  8  9  1  0
  9 10  1  0
 10 11  1  0
 11 12  1  0
 11 13  1  0
  8 14  1  0
 14 15  1  0
 13 12  1  0
M  RAD  3   3   2   7   2   9   2
M  END
>  <fragInfo>  (1) 
11 12 13
1 2
3
4
5 6
7
8
9
10
14 15


>  <torsionInfo>  (1) 
10 11 8 0
2 3 1 2
3 4 2 3
4 5 3 4
5 7 4 5
7 8 5 6
8 9 6 7
8 14 6 9
9 10 7 8


>  <atomInfo>  (1) 
1  0.03885651C 
2  -0.3513313OA
3  0.20894051C 
4  -0.3446068OA
5  0.06160052C 
6  -0.0382520C 
7  -0.0041792C 
8  -0.0091382C 
9  -0.0275800C 
10 0.00785121C 
11 0.22444863C 
12 -0.1985061OA
13 -0.1985061OA
14 0.04652950C 
15 -0.3960641OA


$$$$
