
     RDKit          3D

 32 33  0  0  0  0  0  0  0  0999 V2000
   -1.3009    2.5146    0.8176 C   0  0  0  0  0  0  0  0  0  0  0  0
   -2.4828    1.8928    1.5786 C   0  0  1  0  0  0  0  0  0  0  0  0
   -3.5717    2.9294    1.7652 C   0  0  0  0  0  0  0  0  0  0  0  0
   -4.0850    3.4529    0.4396 C   0  0  2  0  0  0  0  0  0  0  0  0
   -5.0931    4.3805    0.6864 O   0  0  0  0  0  0  0  0  0  0  0  0
   -4.6850    2.2504   -0.2816 C   0  0  2  0  0  0  0  0  0  0  0  0
   -5.7457    1.7358    0.4457 O   0  0  0  0  0  0  0  0  0  0  0  0
   -3.6177    1.2372   -0.5564 C   0  0  1  0  0  0  0  0  0  0  0  0
   -2.6010    1.8953   -1.2835 O   0  0  0  0  0  0  0  0  0  0  0  0
   -2.9372    0.7459    0.7041 C   0  0  1  0  0  0  0  0  0  0  0  0
   -1.7543    0.0469    0.2443 N   0  0  0  0  0  0  0  0  0  0  0  0
   -1.4129   -1.1214    1.0154 C   0  0  0  0  0  3  0  0  0  0  0  0
   -0.5610   -1.9914    0.1345 C   0  0  2  0  0  0  0  0  0  0  0  0
   -1.1155   -1.9359   -1.2631 C   0  0  0  0  0  0  0  0  0  0  0  0
   -1.7663   -3.1940   -1.4100 O   0  0  0  0  0  0  0  0  0  0  0  0
   -2.7579   -3.2560   -0.4899 N   0  0  0  0  0  0  0  0  0  0  0  0
   -0.3964   -3.2880    0.5577 O   0  0  0  0  0  0  0  0  0  0  0  0
   -0.0121   -3.9831   -0.4883 O   0  0  0  0  0  0  0  0  0  0  0  0
    1.3022   -3.6780   -0.8494 C   0  0  1  0  0  0  0  0  0  0  0  0
    1.5114   -4.3156   -2.0711 O   0  0  0  0  0  0  0  0  0  0  0  0
    1.5430   -2.2102   -1.0413 C   0  0  2  0  0  0  0  0  0  0  0  0
    2.9334   -2.0061   -1.0411 O   0  0  0  0  0  0  0  0  0  0  0  0
    0.8972   -1.4262    0.1184 C   0  0  1  0  0  0  0  0  0  0  0  0
    0.7646   -0.0672   -0.2251 O   0  0  0  0  0  0  0  0  0  0  0  0
    1.5852    0.5818    0.6138 O   0  0  0  0  0  0  0  0  0  0  0  0
    2.5589   -0.2790    0.9754 N   0  0  0  0  0  0  0  0  0  0  0  0
    3.6728    0.4168    1.4138 O   0  0  0  0  0  0  0  0  0  0  0  0
    4.8453   -0.2335    1.0870 C   0  0  0  0  0  3  0  0  0  0  0  0
    5.4232    0.2728   -0.0809 O   0  0  0  0  0  0  0  0  0  0  0  0
    5.2918    1.9862   -0.0307 S   0  0  0  0  0  0  0  0  0  0  0  0
    6.8424    2.7118    0.1534 O   0  0  0  0  0  0  0  0  0  0  0  0
    6.7250    3.9346    0.6068 O   0  0  0  0  0  0  0  0  0  0  0  0
  2  1  1  6
  2  3  1  0
  3  4  1  0
  4  5  1  1
  4  6  1  0
  6  7  1  1
  6  8  1  0
  8  9  1  6
  8 10  1  0
 10 11  1  6
 11 12  1  0
 13 12  1  1
 13 14  1  0
 14 15  1  0
 15 16  1  0
 13 17  1  0
 17 18  1  0
 18 19  1  0
 19 20  1  6
 19 21  1  0
 21 22  1  1
 21 23  1  0
 23 24  1  6
 24 25  1  0
 25 26  1  0
 26 27  1  0
 27 28  1  0
 28 29  1  0
 29 30  1  0
 30 31  1  0
 31 32  1  0
 10  2  1  0
 23 13  1  0
M  RAD  2  12   2  28   2
M  END
>  <fragInfo>  (1) 
1 2 3 4 5 6 7 8 9 10
11
12
13 17 18 19 20 21 22 23
14
15 16
24
25
26
27
28
29
30
31 32


>  <torsionInfo>  (1) 
10 11 0 1
11 12 1 2
12 13 2 3
13 14 3 4
23 24 3 6
14 15 4 5
24 25 6 7
25 26 7 8
26 27 8 9
27 28 9 10
28 29 10 11
29 30 11 12
30 31 12 13


>  <atomInfo>  (1) 
1  -0.0608233C 
2  -0.0236266C 
3  -0.0201755C 
4  0.08280077C 
5  -0.3903155OA
6  0.10722524C 
7  -0.3876533OA
8  0.09793102C 
9  -0.3886791OA
10 0.03850174C 
11 -0.3037935NA
12 0.06348043C 
13 0.17738106C 
14 0.10458400C 
15 -0.3012706OA
16 -0.2157052NA
17 -0.2199194OA
18 -0.2008940OA
19 0.21736862C 
20 -0.3635677OA
21 0.14010428C 
22 -0.3847096OA
23 0.16187727C 
24 -0.2063613OA
25 -0.1164435OA
26 -0.0433095NA
27 -0.2354611OA
28 0.24810602C 
29 -0.2495541OA
30 0.19659832SA
31 -0.1357614OA
32 -0.2371436OA


$$$$
