
     RDKit          3D

 27 29  0  0  0  0  0  0  0  0999 V2000
    3.3398    2.8158    0.2465 C   0  0  0  0  0  0  0  0  0  0  0  0
    3.2059    1.5649    0.6043 C   0  0  0  0  0  0  0  0  0  0  0  0
    4.2462    0.5838    0.2153 C   0  0  0  0  0  0  0  0  0  0  0  0
    3.7163   -0.8606    0.2582 C   0  0  0  0  0  0  0  0  0  0  0  0
    2.3310   -0.8265   -0.2112 C   0  0  1  0  0  0  0  0  0  0  0  0
    1.6372   -2.0918   -0.5181 C   0  0  0  0  0  0  0  0  0  0  0  0
    2.2345   -2.7002   -1.7748 C   0  0  0  0  0  0  0  0  0  0  0  0
    1.8932   -3.1002    0.6097 C   0  0  0  0  0  0  0  0  0  0  0  0
    0.1623   -1.9457   -0.6505 C   0  0  0  0  0  0  0  0  0  0  0  0
   -0.4056   -0.6047   -0.8761 C   0  0  2  0  0  0  0  0  0  0  0  0
    0.4214    0.5505   -0.3958 C   0  0  0  0  0  0  0  0  0  0  0  0
    1.3778   -0.0071    0.6607 C   0  0  1  0  0  0  0  0  0  0  0  0
    0.6622   -0.9036    1.6304 C   0  0  0  0  0  0  0  0  0  0  0  0
    2.0637    1.0867    1.3788 C   0  0  2  0  0  0  0  0  0  0  0  0
    1.0768    2.1180    1.8075 C   0  0  0  0  0  0  0  0  0  0  0  0
   -0.1430    2.2206    1.1054 C   0  0  0  0  0  0  0  0  0  0  0  0
   -1.2389    1.8281    0.6711 C   0  0  0  0  0  0  0  0  0  0  0  0
   -2.1873    2.6261   -0.1660 C   0  0  0  0  0  0  0  0  0  0  0  0
   -1.8556    3.7879   -0.4572 O   0  0  0  0  0  0  0  0  0  0  0  0
   -1.8502    0.4767    0.8864 C   0  0  0  0  0  0  0  0  0  0  0  0
   -1.7976   -0.4073   -0.3136 C   0  0  1  0  0  0  0  0  0  0  0  0
   -2.5605    0.1658   -1.3426 O   0  0  0  0  0  0  0  0  0  0  0  0
   -3.8700    0.3956   -0.9402 C   0  0  0  0  0  0  0  0  0  0  0  0
   -2.4002   -1.7481    0.1090 C   0  0  2  0  0  0  0  0  0  0  0  0
   -2.5067   -2.7005   -1.0361 C   0  0  0  0  0  2  0  0  0  0  0  0
   -3.7305   -1.5227    0.7341 C   0  0  0  0  0  0  0  0  0  0  0  0
   -3.8222   -0.8015    1.7230 O   0  0  0  0  0  0  0  0  0  0  0  0
  1  2  2  0
  2  3  1  0
  3  4  1  0
  5  4  1  1
  5  6  1  0
  6  7  1  0
  6  8  1  0
  6  9  1  0
 10  9  1  1
 10 11  1  0
 11 12  1  0
 12 13  1  1
 12 14  1  0
 14 15  1  6
 15 16  1  0
 16 17  2  0
 17 18  1  0
 18 19  2  0
 17 20  1  0
 20 21  1  0
 21 22  1  6
 22 23  1  0
 21 24  1  0
 24 25  1  6
 24 26  1  0
 26 27  2  0
 14  2  1  0
 12  5  1  0
 21 10  1  0
M  RAD  1  25   3
M  END
>  <fragInfo>  (1) 
1 2 3 4 5 6 7 8 9 10 11 12 13 14 15 16 17 20 21
18 19
22 23
24 25
26 27


>  <torsionInfo>  (1) 
17 18 0 1
21 22 0 2
21 24 0 3
24 26 3 4


>  <atomInfo>  (1) 
1  -0.0995490C 
2  -0.0734256C 
3  -0.0316852C 
4  -0.0456466C 
5  -0.0299514C 
6  -0.0316674C 
7  -0.0596108C 
8  -0.0596108C 
9  -0.0421725C 
10 -0.0100379C 
11 -0.0413243C 
12 -0.0220241C 
13 -0.0587597C 
14 -0.0114146C 
15 -0.0272505C 
16 -0.0773430C 
17 -0.0092179C 
18 0.14531303C 
19 -0.2982670OA
20 0.00534672C 
21 0.08446970C 
22 -0.3768468OA
23 0.03627937C 
24 0.04767409C 
25 -0.0212615C 
26 0.12577923C 
27 -0.3029569OA


$$$$
