
     RDKit          3D

 22 24  0  0  0  0  0  0  0  0999 V2000
   -3.1122   -2.5671    0.6857 C   0  0  0  0  0  0  0  0  0  0  0  0
   -2.4090   -1.6852   -0.2183 N   0  0  0  0  0  0  0  0  0  0  0  0
   -1.2371   -2.4193   -0.7024 C   0  0  2  0  0  0  0  0  0  0  0  0
   -0.3333   -2.4074    0.5141 C   0  0  0  0  0  0  0  0  0  0  0  0
   -0.8144   -1.2397    1.3738 C   0  0  0  0  0  0  0  0  0  0  0  0
   -1.8213   -0.5502    0.4882 C   0  0  1  0  0  0  0  0  0  0  0  0
   -1.2125    0.3505   -0.5306 C   0  0  1  0  0  0  0  0  0  0  0  0
   -0.5918    1.5875    0.0395 C   0  0  1  0  0  0  0  0  0  0  0  0
   -0.2477    2.4151   -1.0456 O   0  0  0  0  0  0  0  0  0  0  0  0
   -1.5332    2.3833    0.9046 C   0  0  0  0  0  0  0  0  0  0  0  0
   -0.8379    3.4879    1.3613 F   0  0  0  0  0  0  0  0  0  0  0  0
   -2.5873    2.8896    0.1326 F   0  0  0  0  0  0  0  0  0  0  0  0
   -2.0226    1.6846    1.9647 F   0  0  0  0  0  0  0  0  0  0  0  0
   -0.2473   -0.2897   -1.3865 N   0  0  0  0  0  3  0  0  0  0  0  0
    1.0600   -0.2670   -0.8542 C   0  0  0  0  0  0  0  0  0  0  0  0
    1.4080    0.2949    0.3452 C   0  0  0  0  0  0  0  0  0  0  0  0
    2.7040    0.2902    0.8212 C   0  0  0  0  0  0  0  0  0  0  0  0
    3.6998   -0.3004    0.0703 C   0  0  0  0  0  0  0  0  0  0  0  0
    5.3785   -0.3455    0.6129 Cl  0  0  0  0  0  0  0  0  0  0  0  0
    3.3502   -0.8695   -1.1431 C   0  0  0  0  0  0  0  0  0  0  0  0
    2.0623   -0.8545   -1.5966 C   0  0  0  0  0  0  0  0  0  0  0  0
   -0.6553   -1.5880   -1.8368 C   0  0  0  0  0  0  0  0  0  0  0  0
  1  2  1  0
  2  3  1  0
  3  4  1  1
  4  5  1  0
  6  5  1  1
  6  7  1  0
  7  8  1  0
  8  9  1  6
  8 10  1  0
 10 11  1  0
 10 12  1  0
 10 13  1  0
  7 14  1  1
 14 15  1  0
 15 16  2  0
 16 17  1  0
 17 18  2  0
 18 19  1  0
 18 20  1  0
 20 21  2  0
 14 22  1  0
  6  2  1  0
 22  3  1  0
 21 15  1  0
M  CHG  1  14   1
M  RAD  1  14   2
M  END
>  <fragInfo>  (1) 
1 2 3 4 5 6 7 14 22
8 9
10 11 12 13
15 16 17 18 19 20 21


>  <torsionInfo>  (1) 
7 8 0 1
14 15 0 3
8 10 1 2


>  <atomInfo>  (1) 
1  -0.0123052C 
2  -0.2889968NA
3  0.06441864C 
4  -0.0301084C 
5  -0.0297027C 
6  0.07034252C 
7  0.18832454C 
8  0.20866481C 
9  -0.3786547OA
10 0.42003197C 
11 -0.1678533F 
12 -0.1678533F 
13 -0.1678533F 
14 -0.1250744N 
15 0.18080558A 
16 0.00561571A 
17 -0.0374148A 
18 0.04100594A 
19 -0.0843364Cl
20 -0.0374148A 
21 0.00561571A 
22 0.14420149C 


$$$$
