
     RDKit          2D

 83 83  0  0  0  0  0  0  0  0999 V2000
    5.2850   -5.1755    0.0000 C   0  0  0  0  0  0  0  0  0  0  0  0
    5.3971   -3.6797    0.0000 C   0  0  0  0  0  0  0  0  0  0  0  0
    6.2360   -3.3955    0.0000 C   0  0  0  0  0  0  0  0  0  0  0  0
    4.1577   -2.8347    0.0000 C   0  0  0  0  0  0  0  0  0  0  0  0
    3.1375   -3.9343    0.0000 C   0  0  0  0  0  0  0  0  0  0  0  0
    1.8384   -4.6843    0.0000 C   0  0  0  0  0  0  0  0  0  0  0  0
    0.3761   -5.0181    0.0000 C   0  0  0  0  0  0  0  0  0  0  0  0
    0.4881   -6.5139    0.0000 C   0  0  0  0  0  0  0  0  0  0  0  0
   -1.1198   -4.9060    0.0000 C   0  0  0  0  0  3  0  0  0  0  0  0
   -2.5161   -4.3580    0.0000 C   0  0  0  0  0  0  0  0  0  0  0  0
   -3.6888   -3.4227    0.0000 C   0  0  0  0  0  0  0  0  0  0  0  0
   -4.5338   -2.1834    0.0000 C   0  0  0  0  0  0  0  0  0  0  0  0
   -5.8852   -2.8342    0.0000 C   0  0  0  0  0  0  0  0  0  0  0  0
   -4.9759   -0.7500    0.0000 C   0  0  0  0  0  3  0  0  0  0  0  0
   -4.9759    0.7500    0.0000 C   0  0  0  0  0  0  0  0  0  0  0  0
   -4.5338    2.1834    0.0000 C   0  0  0  0  0  0  0  0  0  0  0  0
   -5.3159    3.4633    0.0000 N   0  0  0  0  0  1  0  0  0  0  0  0
   -6.0222    1.9968    0.0000 F   0  0  0  0  0  0  0  0  0  0  0  0
   -3.6888    3.4227    0.0000 C   0  0  0  0  0  0  0  0  0  0  0  0
   -2.5161    4.3580    0.0000 O   0  0  0  0  0  0  0  0  0  0  0  0
   -1.1198    4.9060    0.0000 C   0  0  0  0  0  0  0  0  0  0  0  0
    0.3761    5.0181    0.0000 C   0  0  0  0  0  0  0  0  0  0  0  0
    1.8384    4.6843    0.0000 C   0  0  0  0  0  0  0  0  0  0  0  0
    2.3865    6.0806    0.0000 O   0  0  0  0  0  0  0  0  0  0  0  0
    3.1375    3.9343    0.0000 O   0  0  0  0  0  0  0  0  0  0  0  0
    4.1577    2.8347    0.0000 C   0  0  0  0  0  0  0  0  0  0  0  0
    4.8086    1.4832    0.0000 C   0  0  0  0  0  0  0  0  0  0  0  0
    5.0321    0.0000    0.0000 C   0  0  0  0  0  0  0  0  0  0  0  0
    6.5321    0.0000    0.0000 C   0  0  0  0  0  0  0  0  0  0  0  0
    4.8086   -1.4832    0.0000 C   0  0  0  0  0  0  0  0  0  0  0  0
    6.2419   -1.9254    0.0000 C   0  0  0  0  0  0  0  0  0  0  0  0
    6.5428   -2.7584    0.0000 C   0  0  0  0  0  0  0  0  0  0  0  0
    7.3415   -0.9051    0.0000 C   0  0  0  0  0  0  0  0  0  0  0  0
    8.7749   -1.3473    0.0000 C   0  0  0  0  0  0  0  0  0  0  0  0
    9.8744   -0.3270    0.0000 O   0  0  0  0  0  1  0  0  0  0  0  0
    9.1086   -2.8096    0.0000 O   0  0  0  0  0  0  0  0  0  0  0  0
   10.5420   -3.2518    0.0000 C   0  0  0  0  0  3  0  0  0  0  0  0
   10.8758   -4.7142    0.0000 C   0  0  0  0  0  3  0  0  0  0  0  0
    9.7762   -5.7344    0.0000 O   0  0  0  0  0  1  0  0  0  0  0  0
   12.3091   -5.1563    0.0000 C   0  0  0  0  0  0  0  0  0  0  0  0
   12.6429   -6.6187    0.0000 C   0  0  0  0  0  0  0  0  0  0  0  0
   14.0763   -7.0608    0.0000 C   0  0  0  0  0  0  0  0  0  0  0  0
   15.1759   -6.0406    0.0000 O   0  0  0  0  0  0  0  0  0  0  0  0
   14.4101   -8.5232    0.0000 C   0  0  0  0  0  0  0  0  0  0  0  0
   15.8434   -8.9654    0.0000 C   0  0  0  0  0  3  0  0  0  0  0  0
   16.1772  -10.4277    0.0000 C   0  0  0  0  0  0  0  0  0  0  0  0
   15.0776  -11.4480    0.0000 O   0  0  0  0  0  1  0  0  0  0  0  0
   17.6106  -10.8699    0.0000 C   0  0  0  0  0  0  0  0  0  0  0  0
   17.9443  -12.3323    0.0000 C   0  0  0  0  0  0  0  0  0  0  0  0
   19.3777  -12.7744    0.0000 C   0  0  0  0  0  0  0  0  0  0  0  0
   19.7115  -14.2368    0.0000 C   0  0  0  0  0  0  0  0  0  0  0  0
   21.1448  -14.6789    0.0000 C   0  0  0  0  0  0  0  0  0  0  0  0
   18.6119  -15.2571    0.0000 C   0  0  0  0  0  0  0  0  0  0  0  0
   18.9457  -16.7194    0.0000 C   0  0  0  0  0  3  0  0  0  0  0  0
   17.8461  -17.7397    0.0000 O   0  0  0  0  0  1  0  0  0  0  0  0
   13.3105   -9.5435    0.0000 C   0  0  0  0  0  0  0  0  0  0  0  0
   13.6443  -11.0059    0.0000 C   0  0  0  0  0  0  0  0  0  0  0  0
   12.5447  -12.0261    0.0000 C   0  0  0  0  0  0  0  0  0  0  0  0
   12.8785  -13.4885    0.0000 C   0  0  0  0  0  0  0  0  0  0  0  0
   11.7789  -14.5088    0.0000 C   0  0  0  0  0  0  0  0  0  0  0  0
   10.3455  -14.0666    0.0000 O   0  0  0  0  0  1  0  0  0  0  0  0
   12.1127  -15.9712    0.0000 C   0  0  0  0  0  3  0  0  0  0  0  0
   11.0131  -16.9914    0.0000 C   0  0  0  0  0  0  0  0  0  0  0  0
   11.3469  -18.4538    0.0000 C   0  0  0  0  0  0  0  0  0  0  0  0
   10.2473  -19.4741    0.0000 C   0  0  0  0  0  0  0  0  0  0  0  0
   12.7802  -18.8960    0.0000 C   0  0  0  0  0  0  0  0  0  0  0  0
   13.1140  -20.3583    0.0000 C   0  0  0  0  0  0  0  0  0  0  0  0
   14.5474  -20.8005    0.0000 C   0  0  0  0  0  0  0  0  0  0  0  0
   14.8812  -22.2629    0.0000 C   0  0  0  0  0  0  0  0  0  0  0  0
   16.3145  -22.7050    0.0000 C   0  0  0  0  0  0  0  0  0  0  0  0
   13.7816  -23.2831    0.0000 C   0  0  0  0  0  0  0  0  0  0  0  0
   14.1154  -24.7455    0.0000 C   0  0  0  0  0  0  0  0  0  0  0  0
   13.0158  -25.7658    0.0000 C   0  0  0  0  0  0  0  0  0  0  0  0
   13.3496  -27.2282    0.0000 C   0  0  0  0  0  3  0  0  0  0  0  0
   12.2500  -28.2484    0.0000 O   0  0  0  0  0  0  0  0  0  0  0  0
   12.5838  -29.7108    0.0000 C   0  0  0  0  0  0  0  0  0  0  0  0
   11.4842  -30.7311    0.0000 C   0  0  0  0  0  0  0  0  0  0  0  0
   11.8180  -32.1935    0.0000 C   0  0  0  0  0  3  0  0  0  0  0  0
   10.7184  -33.2137    0.0000 C   0  0  0  0  0  0  0  0  0  0  0  0
   11.0522  -34.6761    0.0000 C   0  0  0  0  0  0  0  0  0  0  0  0
    9.9526  -35.6964    0.0000 O   0  0  0  0  0  1  0  0  0  0  0  0
   12.4855  -35.1183    0.0000 O   0  0  0  0  0  0  0  0  0  0  0  0
   12.8193  -36.5807    0.0000 C   0  0  0  0  0  0  0  0  0  0  0  0
  1  2  1  0
  2  3  1  0
  2  4  1  0
  4  5  1  0
  5  6  1  0
  6  7  1  0
  7  8  1  1
  7  9  1  0
  9 10  1  0
 10 11  1  0
 11 12  1  0
 12 13  1  6
 12 14  1  0
 14 15  1  0
 15 16  1  0
 16 17  1  0
 16 18  1  0
 16 19  1  0
 19 20  1  0
 20 21  1  0
 21 22  1  0
 22 23  1  0
 23 24  1  0
 23 25  1  0
 25 26  1  0
 26 27  1  0
 27 28  1  0
 28 29  1  0
 28 30  1  0
 30 31  1  6
 31 32  1  0
 31 33  1  0
 33 34  1  0
 34 35  1  1
 34 36  1  0
 36 37  1  0
 37 38  1  0
 38 39  1  0
 38 40  1  0
 40 41  1  0
 41 42  1  0
 42 43  1  1
 42 44  1  0
 44 45  1  1
 45 46  1  0
 46 47  1  0
 46 48  1  0
 48 49  1  0
 49 50  1  0
 50 51  1  0
 51 52  1  0
 51 53  1  0
 53 54  1  0
 54 55  1  0
 44 56  1  0
 56 57  1  0
 57 58  1  0
 58 59  1  0
 59 60  1  0
 60 61  1  6
 60 62  1  0
 62 63  1  0
 63 64  1  0
 64 65  1  0
 64 66  1  0
 66 67  1  0
 67 68  1  0
 68 69  1  0
 69 70  1  6
 69 71  1  0
 71 72  1  0
 72 73  1  0
 73 74  1  0
 74 75  1  0
 75 76  1  0
 76 77  1  0
 77 78  1  0
 78 79  1  0
 79 80  1  0
 80 81  1  6
 80 82  1  0
 82 83  1  0
 30  4  1  0
M  RAD  8   9   2  14   2  17   2  37   2  38   2  45   2  54   2  62   2
M  CHG  7  17   1  35  -1  39  -1  47  -1  55  -1  61  -1  81  -1
M  RAD  2  74   2  78   2
M  END
>  <fragInfo>  (1) 
4 5 6 7 8 9 10 11 12 13 14 15 16 17 18 19 20 21 22 23 24 25 26 27 28 29 30
1 2 3
31 32
33
34 35
36
37
38 39
40
41
42 43
44
45
46 47
48
49
50
51 52
53
54 55
56
57
58
59
60 61
62
63
64 65
66
67
68
69 70
71
72
73
74
75
76
77
78
79
80 81
82 83


>  <torsionInfo>  (1) 
2 4 1 0
30 31 0 2
31 33 2 3
33 34 3 4
34 36 4 5
36 37 5 6
37 38 6 7
38 40 7 8
40 41 8 9
41 42 9 10
42 44 10 11
44 45 11 12
44 56 11 20
45 46 12 13
46 48 13 14
48 49 14 15
49 50 15 16
50 51 16 17
51 53 17 18
53 54 18 19
56 57 20 21
57 58 21 22
58 59 22 23
59 60 23 24
60 62 24 25
62 63 25 26
63 64 26 27
64 66 27 28
66 67 28 29
67 68 29 30
68 69 30 31
69 71 31 32
71 72 32 33
72 73 33 34
73 74 34 35
74 75 35 36
75 76 36 37
76 77 37 38
77 78 38 39
78 79 39 40
79 80 40 41
80 82 41 42


>  <atomInfo>  (1) 
1  -0.0624982C 
2  -0.0440019C 
3  -0.0624982C 
4  -0.0357468C 
5  -0.0496543C 
6  -0.0501522C 
7  -0.0411500C 
8  -0.0622340C 
9  -0.0357401C 
10 -0.0496542C 
11 -0.0501458C 
12 -0.0407745C 
13 -0.0622277C 
14 -0.0256570C 
15 0.05922383C 
16 0.44371286C 
17 0.46822739N 
18 -0.1597517F 
19 0.15205663C 
20 -0.3707478OA
21 0.05189966C 
22 0.02170192C 
23 0.15622119C 
24 -0.3679044OA
25 -0.3528013OA
26 0.04998592C 
27 -0.0266098C 
28 -0.0387152C 
29 -0.0621394C 
30 -0.0330523C 
31 -0.0397786C 
32 -0.0621793C 
33 -0.0391562C 
34 -0.0181467C 
35 -0.8310739OA
36 -0.3902374OA
37 0.07108735C 
38 -0.0914461C 
39 -0.8480152OA
40 -0.0586697C 
41 -0.0274176C 
42 0.05700491C 
43 -0.3928322OA
44 -0.0132129C 
45 -0.0464714C 
46 -0.1234715C 
47 -0.8517253OA
48 -0.0656048C 
49 -0.0540656C 
50 -0.0507865C 
51 -0.0453386C 
52 -0.0625479C 
53 -0.0642998C 
54 -0.1396805C 
55 -0.8526770OA
56 -0.0477437C 
57 -0.0529741C 
58 -0.0543069C 
59 -0.0656261C 
60 -0.1238369C 
61 -0.8517334OA
62 -0.0518772C 
63 -0.0486538C 
64 -0.0440445C 
65 -0.0625000C 
66 -0.0506915C 
67 -0.0527984C 
68 -0.0507012C 
69 -0.0442782C 
70 -0.0625097C 
71 -0.0506144C 
72 -0.0504836C 
73 -0.0241538C 
74 0.08361842C 
75 -0.3755115OA
76 0.04734146C 
77 -0.0264247C 
78 -0.0351408C 
79 -0.0388571C 
80 -0.0189945C 
81 -0.8310956OA
82 -0.3985067OA
83 0.03399809C 


$$$$
