
     RDKit          3D

 12 12  0  0  0  0  0  0  0  0999 V2000
    4.0347    1.0320    0.0231 C   0  0  0  0  0  0  0  0  0  0  0  0
    3.4435   -0.0963   -0.6032 O   0  0  0  0  0  0  0  0  0  0  0  0
    2.0830   -0.0829   -0.7873 C   0  0  0  0  0  0  0  0  0  0  0  0
    1.2006   -0.4128    0.1199 C   0  0  0  0  0  0  0  0  0  0  0  0
    1.5039   -0.8225    1.3946 O   0  0  0  0  0  0  0  0  0  0  0  0
   -0.2298   -0.3305   -0.2806 C   0  0  0  0  0  0  0  0  0  0  0  0
   -1.3330   -0.5737    0.3405 C   0  0  0  0  0  0  0  0  0  0  0  0
   -1.5770   -1.0196    1.6674 O   0  0  0  0  0  0  0  0  0  0  0  0
   -2.1500   -0.2261   -0.7999 C   0  0  2  0  0  0  0  0  0  0  0  0
   -0.9269    0.0497   -1.5074 C   0  0  0  0  0  0  0  0  0  0  0  0
   -2.9563    1.0075   -0.5252 C   0  0  0  0  0  0  0  0  0  0  0  0
   -3.0927    1.4753    0.5811 O   0  0  0  0  0  0  0  0  0  0  0  0
  1  2  1  0
  2  3  1  0
  3  4  2  3
  4  5  1  0
  4  6  1  0
  6  7  2  0
  7  8  1  0
  7  9  1  0
  9 10  1  0
  9 11  1  1
 11 12  2  0
 10  6  1  0
M  END
>  <fragInfo>  (1) 
6 7 8 9 10
1 2
3 4 5
11 12


>  <torsionInfo>  (1) 
4 6 2 0
9 11 0 3
2 3 1 2


>  <atomInfo>  (1) 
1  0.07680905C 
2  -0.5005024OA
3  0.12456370C 
4  0.15613469C 
5  -0.5044152OA
6  0.03644011C 
7  0.10975974C 
8  -0.5111200OA
9  0.07652277C 
10 -0.0040519C 
11 0.13044337C 
12 -0.3025700OA


$$$$
