
     RDKit          3D

 11 11  0  0  0  0  0  0  0  0999 V2000
    3.2176    1.2166   -0.8440 O   0  0  0  0  0  0  0  0  0  0  0  0
    2.4036    0.0928   -0.8824 C   0  0  0  0  0  0  0  0  0  0  0  0
    1.1937    0.2658    0.0165 C   0  0  1  0  0  0  0  0  0  0  0  0
    0.4610    1.4082   -0.4536 N   0  0  0  0  0  0  0  0  0  0  0  0
   -0.8224    1.5544    0.1727 C   0  0  0  0  0  3  0  0  0  0  0  0
   -1.6466    0.3293   -0.1042 C   0  0  2  0  0  0  0  0  0  0  0  0
   -2.8713    0.4910    0.5746 O   0  0  0  0  0  0  0  0  0  0  0  0
   -0.9763   -0.8738    0.5498 C   0  0  1  0  0  0  0  0  0  0  0  0
   -1.7066   -2.0041    0.2481 O   0  0  0  0  0  0  0  0  0  0  0  0
    0.4155   -1.0109   -0.0022 C   0  0  1  0  0  0  0  0  0  0  0  0
    0.3320   -1.4691   -1.3083 O   0  0  0  0  0  0  0  0  0  0  0  0
  1  2  1  0
  3  2  1  6
  3  4  1  0
  4  5  1  0
  5  6  1  0
  6  7  1  1
  6  8  1  0
  8  9  1  6
  8 10  1  0
 10 11  1  6
 10  3  1  0
M  RAD  1   5   2
M  END
>  <fragInfo>  (1) 
3 4 5 6 7 8 9 10 11
1 2


>  <torsionInfo>  (1) 
2 3 1 0


>  <atomInfo>  (1) 
1  -0.3946489OA
2  0.06106530C 
3  0.05928130C 
4  -0.3025387NA
5  0.05403844C 
6  0.09936216C 
7  -0.3886222OA
8  0.10889851C 
9  -0.3875846OA
10 0.09997869C 
11 -0.3885943OA


$$$$
