
     RDKit          3D

  9  9  0  0  0  0  0  0  0  0999 V2000
    2.0717    0.2122   -0.0114 C   0  0  0  0  0  0  0  0  0  0  0  0
    1.1277    1.2005    0.1375 O   0  0  0  0  0  0  0  0  0  0  0  0
    0.0340    1.0486   -0.6931 C   0  0  0  0  0  3  0  0  0  0  0  0
   -1.1186    1.2581    0.0815 O   0  0  0  0  0  0  0  0  0  0  0  0
   -1.5855   -0.0311    0.4105 C   0  0  0  0  0  0  0  0  0  0  0  0
   -1.8964   -0.7286   -0.9092 C   0  0  0  0  0  0  0  0  0  0  0  0
   -0.4937   -0.6691    1.0323 O   0  0  0  0  0  0  0  0  0  0  0  0
    0.2564   -1.2248   -0.0200 C   0  0  0  0  0  3  0  0  0  0  0  0
    1.6044   -1.0658    0.1334 O   0  0  0  0  0  0  0  0  0  0  0  0
  1  2  1  0
  2  3  1  0
  3  4  1  0
  4  5  1  0
  5  6  1  0
  5  7  1  0
  7  8  1  0
  8  9  1  0
  9  1  1  0
M  RAD  2   3   2   8   2
M  END
>  <fragInfo>  (1) 
1 2 3 4 5 6 7 8 9


>  <torsionInfo>  (1) 


>  <atomInfo>  (1) 
1  0.15308463C 
2  -0.3210279OA
3  0.21378018C 
4  -0.3185440OA
5  0.16116118C 
6  -0.0131940C 
7  -0.3185440OA
8  0.21378018C 
9  -0.3210279OA


$$$$
