
     RDKit          3D

 55 59  0  0  0  0  0  0  0  0999 V2000
    9.4389   -2.3538   -1.5935 C   0  0  0  0  0  0  0  0  0  0  0  0
   10.3421   -1.1598   -1.5458 C   0  0  0  0  0  3  0  0  0  0  0  0
   10.9767   -1.0424   -0.1761 C   0  0  0  0  0  0  0  0  0  0  0  0
   10.4580    0.1656    0.5861 C   0  0  0  0  0  3  0  0  0  0  0  0
   10.7473    1.3581   -0.2373 C   0  0  0  0  0  0  0  0  0  0  0  0
   11.0619    2.3934    0.2959 O   0  0  0  0  0  0  0  0  0  0  0  0
   10.6450    1.2593   -1.7082 C   0  0  0  0  0  0  0  0  0  0  0  0
    9.6942    0.1040   -2.0085 C   0  0  2  0  0  0  0  0  0  0  0  0
    8.4493    0.3631   -1.1512 C   0  0  0  0  0  0  0  0  0  0  0  0
    7.5015   -0.7657   -1.3971 C   0  0  0  0  0  0  0  0  0  0  0  0
    8.0785   -2.0964   -1.0300 C   0  0  2  0  0  0  0  0  0  0  0  0
    8.1003   -2.2385    0.4636 C   0  0  0  0  0  0  0  0  0  0  0  0
    6.7221   -1.9775    1.0319 C   0  0  0  0  0  0  0  0  0  0  0  0
    5.7215   -2.9642    0.4656 C   0  0  0  0  0  3  0  0  0  0  0  0
    6.0662   -4.3906    0.7776 C   0  0  0  0  0  0  0  0  0  0  0  0
    4.3215   -2.6699    0.8935 C   0  0  0  0  0  3  0  0  0  0  0  0
    3.2845   -2.7921   -0.2072 C   0  0  0  0  0  0  0  0  0  0  0  0
    3.9902   -1.2033    1.0642 C   0  0  0  0  0  0  0  0  0  0  0  0
    3.3486   -1.2642   -0.3279 C   0  0  0  0  0  0  0  0  0  0  0  0
    1.9516   -0.7208   -0.3904 C   0  0  0  0  0  0  0  0  0  0  0  0
    1.9457    0.6713   -0.5013 O   0  0  0  0  0  0  0  0  0  0  0  0
    0.6276    1.1188   -0.5551 C   0  0  0  0  0  0  0  0  0  0  0  0
   -0.1047    0.7321    0.6605 C   0  0  0  0  0  0  0  0  0  0  0  0
   -1.1806   -0.0289    0.6812 C   0  0  0  0  0  0  0  0  0  0  0  0
   -1.9077   -0.4093    1.9206 C   0  0  0  0  0  3  0  0  0  0  0  0
   -3.1843   -1.0564    1.4774 C   0  0  2  0  0  0  0  0  0  0  0  0
   -3.0894   -1.2814   -0.0099 C   0  0  0  0  0  0  0  0  0  0  0  0
   -1.8428   -0.6270   -0.4952 C   0  0  1  0  0  0  0  0  0  0  0  0
   -2.0663    0.2796   -1.5220 O   0  0  0  0  0  0  0  0  0  0  0  0
   -2.3831    1.5056   -0.9874 C   0  0  0  0  0  0  0  0  0  0  0  0
   -3.6898    2.0569   -1.5163 C   0  0  2  0  0  0  0  0  0  0  0  0
   -3.3581    2.8364   -2.7901 C   0  0  0  0  0  3  0  0  0  0  0  0
   -2.4753    3.8622   -2.4727 O   0  0  0  0  0  0  0  0  0  0  0  0
   -3.1466    4.8957   -1.7869 C   0  0  0  0  0  0  0  0  0  0  0  0
   -2.2091    6.0052   -1.4395 C   0  0  0  0  0  1  0  0  0  0  0  0
   -4.1476    2.9963   -0.5937 O   0  0  0  0  0  0  0  0  0  0  0  0
   -5.4855    2.8043   -0.2674 C   0  0  1  0  0  0  0  0  0  0  0  0
   -6.1991    2.2200   -1.3145 O   0  0  0  0  0  0  0  0  0  0  0  0
   -5.5054    1.8948    0.9665 C   0  0  0  0  0  3  0  0  0  0  0  0
   -4.6261    0.7259    0.6599 C   0  0  0  0  0  0  0  0  0  0  0  0
   -4.4096   -0.2031    1.8106 C   0  0  1  0  0  0  0  0  0  0  0  0
   -5.4741   -1.1184    1.9361 O   0  0  0  0  0  0  0  0  0  0  0  0
   -5.6645   -1.7835    0.8355 O   0  0  0  0  0  0  0  0  0  0  0  0
   -5.9973   -0.9930   -0.2506 C   0  0  0  0  0  3  0  0  0  0  0  0
   -7.4919   -0.9582   -0.3630 C   0  0  0  0  0  0  0  0  0  0  0  0
   -8.0260   -2.0743   -1.2391 C   0  0  2  0  0  0  0  0  0  0  0  0
   -7.4152   -1.8963   -2.6182 C   0  0  0  0  0  0  0  0  0  0  0  0
   -9.5334   -1.8966   -1.3218 C   0  0  1  0  0  0  0  0  0  0  0  0
  -10.0776   -2.8882   -2.1100 O   0  0  0  0  0  0  0  0  0  0  0  0
  -10.1071   -2.0153    0.0338 C   0  0  0  0  0  0  0  0  0  0  0  0
  -10.1564   -0.9416    0.8282 C   0  0  0  0  0  3  0  0  0  0  0  0
   -4.2712    0.4885    3.1304 C   0  0  0  0  0  0  0  0  0  0  0  0
   -3.0996    1.4143    3.2133 C   0  0  0  0  0  0  0  0  0  0  0  0
   -3.1369    2.4308    2.2834 O   0  0  0  0  0  0  0  0  0  0  0  0
   -2.0107    3.2287    2.4447 C   0  0  0  0  0  2  0  0  0  0  0  0
  1  2  1  0
  2  3  1  0
  3  4  1  0
  4  5  1  0
  5  6  2  0
  5  7  1  0
  8  7  1  1
  8  9  1  0
  9 10  1  0
 10 11  1  0
 11 12  1  1
 12 13  1  0
 13 14  1  0
 14 15  1  0
 16 14  1  0
 16 17  1  0
 16 18  1  0
 18 19  1  0
 19 20  1  0
 20 21  1  0
 21 22  1  0
 22 23  1  0
 23 24  2  3
 24 25  1  0
 26 25  1  6
 26 27  1  0
 27 28  1  0
 28 29  1  6
 29 30  1  0
 30 31  1  0
 31 32  1  6
 32 33  1  0
 33 34  1  0
 34 35  1  0
 31 36  1  0
 36 37  1  0
 37 38  1  6
 37 39  1  0
 39 40  1  0
 40 41  1  0
 41 42  1  0
 42 43  1  0
 43 44  1  0
 44 45  1  0
 45 46  1  0
 46 47  1  6
 46 48  1  0
 48 49  1  6
 48 50  1  0
 50 51  2  0
 41 52  1  1
 52 53  1  0
 53 54  1  0
 54 55  1  0
 11  1  1  0
  8  2  1  0
 19 17  1  0
 28 24  1  0
 41 26  1  0
M  RAD  8   2   2   4   2  14   2  16   2  25   2  32   2  35   2  39   2
M  RAD  3  44   2  51   2  55   3
M  END
>  <fragInfo>  (1) 
23 24 25 26 27 28 29 30 31 36 37 38 39 40 41
1 2 3 4 5 6 7 8 9 10 11
12
13
14 15
16 17 18 19
20
21
22
32
33
34 35
42
43
44
45
46 47
48 49
50 51
52
53
54 55


>  <torsionInfo>  (1) 
22 23 8 0
31 32 0 9
41 42 0 12
41 52 0 19
11 12 1 2
12 13 2 3
13 14 3 4
14 16 4 5
19 20 5 6
20 21 6 7
21 22 7 8
32 33 9 10
33 34 10 11
42 43 12 13
43 44 13 14
44 45 14 15
45 46 15 16
46 48 16 17
48 50 17 18
52 53 19 20
53 54 20 21


>  <atomInfo>  (1) 
1  -0.0438942C 
2  -0.0195582C 
3  -0.0362631C 
4  0.02792744C 
5  0.13651621C 
6  -0.2993647OA
7  0.00978168C 
8  -0.0282428C 
9  -0.0492072C 
10 -0.0501285C 
11 -0.0408374C 
12 -0.0498663C 
13 -0.0465011C 
14 -0.0204067C 
15 -0.0585457C 
16 -0.0169090C 
17 -0.0414128C 
18 -0.0414128C 
19 -0.0166859C 
20 0.04984954C 
21 -0.3770996OA
22 0.06507437C 
23 -0.0568964C 
24 -0.0392453C 
25 -0.0048270C 
26 0.00118814C 
27 -0.0164747C 
28 0.07937129C 
29 -0.3710434OA
30 0.07645606C 
31 0.11274796C 
32 0.11477790C 
33 -0.3719390OA
34 0.05484730C 
35 0.02123344C 
36 -0.3441318OA
37 0.15803958C 
38 -0.3677028OA
39 0.02041287C 
40 -0.0121394C 
41 0.10970190C 
42 -0.2292504OA
43 -0.2299060OA
44 0.12258508C 
45 -0.0154557C 
46 -0.0117711C 
47 -0.0596212C 
48 0.07499622C 
49 -0.3887564OA
50 -0.0559502C 
51 -0.0639329C 
52 0.00327513C 
53 0.05008934C 
54 -0.3724613OA
55 0.11503136C 


$$$$
