
     RDKit          3D

 34 36  0  0  0  0  0  0  0  0999 V2000
    5.2691   -2.3236    0.1437 C   0  0  0  0  0  0  0  0  0  0  0  0
    6.0690   -1.0646   -0.0104 C   0  0  0  0  0  0  0  0  0  0  0  0
    6.6788   -0.6820    1.3312 C   0  0  0  0  0  0  0  0  0  0  0  0
    7.2361   -1.2713   -0.9837 C   0  0  0  0  0  0  0  0  0  0  0  0
    5.0743    0.2945   -0.6030 S   0  0  0  0  0  0  0  0  0  0  0  0
    3.5616   -0.1975   -0.7812 C   0  0  0  0  0  0  0  0  0  0  0  0
    3.0749   -1.5703   -0.4956 C   0  0  1  0  0  0  0  0  0  0  0  0
    2.5766   -1.6781    0.9356 C   0  0  0  0  0  0  0  0  0  0  0  0
    1.9764   -1.9696   -1.4609 C   0  0  0  0  0  0  0  0  0  0  0  0
    1.5212   -3.3749   -1.1264 C   0  0  0  0  0  0  0  0  0  0  0  0
    2.5475   -2.0250   -2.8650 C   0  0  0  0  0  0  0  0  0  0  0  0
    0.8727   -0.9936   -1.3939 C   0  0  0  0  0  0  0  0  0  0  0  0
    0.5375   -0.3720   -2.4193 O   0  0  0  0  0  0  0  0  0  0  0  0
    0.1981   -0.7505   -0.2167 O   0  0  0  0  0  0  0  0  0  0  0  0
   -0.8125    0.1089   -0.0425 N   0  0  0  0  0  0  0  0  0  0  0  0
   -1.8728   -0.2870    0.7984 C   0  0  0  0  0  0  0  0  0  0  0  0
   -1.7797   -1.7226    1.1833 C   0  0  0  0  0  0  0  0  0  0  0  0
   -2.7385   -2.5324    0.8573 C   0  0  0  0  0  0  0  0  0  0  0  0
   -3.9050   -2.1172    0.1343 C   0  0  0  0  0  0  0  0  0  0  0  0
   -4.8561   -2.9778   -0.1762 C   0  0  0  0  0  0  0  0  0  0  0  0
   -4.7666   -4.6577    0.2637 Cl  0  0  0  0  0  0  0  0  0  0  0  0
   -6.0100   -2.5003   -0.9118 C   0  0  0  0  0  0  0  0  0  0  0  0
   -6.4065   -3.2058   -1.9397 C   0  0  0  0  0  0  0  0  0  0  0  0
   -6.6698   -3.9154   -3.0139 C   0  0  0  0  0  0  0  0  0  0  0  0
   -0.6937    1.4249   -0.4737 C   0  0  0  0  0  0  0  0  0  0  0  0
   -0.3502    2.3002    0.6362 C   0  0  0  0  0  0  0  0  0  0  0  0
   -1.2389    3.2942    0.9115 C   0  0  0  0  0  0  0  0  0  0  0  0
    0.1007    4.2180    2.8306 S   0  0  0  0  0  0  0  0  0  0  0  0
    1.4562    5.4719    0.4945 I   0  0  0  0  0  0  0  0  0  0  0  0
   -1.4722    6.2773    2.0010 C   0  0  0  0  0  0  0  0  0  0  0  0
   -2.0536    5.2109    1.8561 C   0  0  0  0  0  0  0  0  0  0  0  0
   -1.8796    4.2167    1.3065 C   0  0  0  0  0  0  0  0  0  0  0  0
   -0.5969    4.2297    2.2374 C   0  0  0  0  0  0  0  0  0  0  0  0
   -0.6481    5.1422    0.9927 O   0  0  0  0  0  0  0  0  0  0  0  0
  1  2  1  0
  2  3  1  0
  2  4  1  0
  2  5  1  0
  5  6  2  3
  6  7  1  0
  7  8  1  1
  7  9  1  0
  9 10  1  0
  9 11  1  0
  9 12  1  0
 12 13  2  0
 12 14  1  0
 14 15  1  0
 15 16  1  0
 16 17  1  0
 17 18  2  3
 18 19  1  0
 19 20  2  3
 20 21  1  0
 20 22  1  0
 22 23  2  0
 23 24  2  0
 15 25  1  0
 25 26  1  0
 26 27  2  3
 27 28  1  0
 28 29  1  0
 28 30  2  0
 30 31  1  0
 31 32  2  0
 32 33  1  0
 33 34  1  0
 32 27  1  0
 33 28  1  0
 34 31  1  0
M  END
>  <fragInfo>  (1) 
26 27 28 29 30 31 32 33 34
1 2 3 4
5 6
7 8
9 10 11
12 13
14
15
16
17 18
19 20 21
22 23 24
25


>  <torsionInfo>  (1) 
25 26 12 0
2 5 1 2
6 7 2 3
7 9 3 4
9 12 4 5
12 14 5 6
14 15 6 7
15 16 7 8
15 25 7 12
16 17 8 9
18 19 9 10
20 22 10 11


>  <atomInfo>  (1) 
1  -0.0516805C 
2  -0.0005023C 
3  -0.0516805C 
4  -0.0516805C 
5  -0.1986231S 
6  -0.0596084C 
7  -0.0052071C 
8  -0.0574487C 
9  0.07062821C 
10 -0.0486633C 
11 -0.0486633C 
12 0.33070587C 
13 -0.2497235OA
14 -0.3667156OA
15 -0.1326839NA
16 0.05360961C 
17 -0.0670882C 
18 -0.0633721C 
19 -0.0431632C 
20 0.04821798C 
21 -0.0836677Cl
22 -0.0019056C 
23 -0.1271441C 
24 -0.0565065C 
25 0.05464052C 
26 -0.0541629C 
27 0.00462796C 
28 -0.1417776S 
29 -0.0246387I 
30 0.00236169C 
31 0.13484121C 
32 0.05625740C 
33 0.16481122C 
34 -0.4749264OA


$$$$
