
     RDKit          3D

 25 24  0  0  0  0  0  0  0  0999 V2000
    5.4836    2.6174    1.0134 C   0  0  0  0  0  0  0  0  0  0  0  0
    5.9749    1.6181    0.0157 C   0  0  0  0  0  3  0  0  0  0  0  0
    4.9671    1.3659   -1.0853 C   0  0  0  0  0  0  0  0  0  0  0  0
    3.6694    0.8315   -0.4847 C   0  0  2  0  0  0  0  0  0  0  0  0
    3.1813    1.8058    0.4106 O   0  0  0  0  0  0  0  0  0  0  0  0
    3.9415   -0.4193    0.3276 C   0  0  2  0  0  0  0  0  0  0  0  0
    4.4298   -1.4051   -0.5474 O   0  0  0  0  0  0  0  0  0  0  0  0
    2.6328   -0.8832    0.9136 C   0  0  1  0  0  0  0  0  0  0  0  0
    2.1308    0.0715    1.7799 O   0  0  0  0  0  0  0  0  0  0  0  0
    1.6750   -1.2310   -0.1908 C   0  0  0  0  0  3  0  0  0  0  0  0
    1.3784   -0.1338   -1.0675 N   0  0  0  0  0  0  0  0  0  0  0  0
    0.1211   -0.3498   -1.7521 C   0  0  0  0  0  3  0  0  0  0  0  0
   -0.5167   -1.6054   -1.2386 C   0  0  0  0  0  0  0  0  0  0  0  0
   -1.4228   -1.3646   -0.0630 C   0  0  2  0  0  0  0  0  0  0  0  0
   -0.7680   -0.8046    1.0264 O   0  0  0  0  0  0  0  0  0  0  0  0
   -2.0209   -2.7056    0.3415 C   0  0  0  0  0  0  0  0  0  0  0  0
   -2.6622   -3.1991   -0.8181 O   0  0  0  0  0  0  0  0  0  0  0  0
   -2.5865   -0.4548   -0.3981 C   0  0  1  0  0  0  0  0  0  0  0  0
   -3.3221   -0.9213   -1.4854 O   0  0  0  0  0  0  0  0  0  0  0  0
   -3.4797   -0.3956    0.8184 C   0  0  2  0  0  0  0  0  0  0  0  0
   -4.0144   -1.7414    1.2152 C   0  0  0  0  0  0  0  0  0  0  0  0
   -4.6015    0.5721    0.6266 C   0  0  0  0  0  3  0  0  0  0  0  0
   -4.0992    1.9650    0.3752 C   0  0  0  0  0  3  0  0  0  0  0  0
   -5.2096    2.7796    0.1663 O   0  0  0  0  0  0  0  0  0  0  0  0
   -4.8821    3.9875   -0.1946 O   0  0  0  0  0  0  0  0  0  0  0  0
  1  2  1  0
  2  3  1  0
  3  4  1  0
  4  5  1  1
  4  6  1  0
  6  7  1  6
  6  8  1  0
  8  9  1  6
  8 10  1  0
 10 11  1  0
 11 12  1  0
 12 13  1  0
 13 14  1  0
 14 15  1  1
 14 16  1  0
 16 17  1  0
 14 18  1  0
 18 19  1  6
 18 20  1  0
 20 21  1  6
 20 22  1  0
 22 23  1  0
 23 24  1  0
 24 25  1  0
M  RAD  5   2   2  10   2  12   2  22   2  23   2
M  END
>  <fragInfo>  (1) 
1 2
3
4 5
6 7
8 9
10
11
12
13
14 15
16 17
18 19
20 21
22
23
24 25


>  <torsionInfo>  (1) 
2 3 0 1
3 4 1 2
4 6 2 3
6 8 3 4
8 10 4 5
10 11 5 6
11 12 6 7
12 13 7 8
13 14 8 9
14 16 9 10
14 18 9 11
18 20 11 12
20 22 12 13
22 23 13 14
23 24 14 15


>  <atomInfo>  (1) 
1  -0.0621560C 
2  -0.0390442C 
3  -0.0215029C 
4  0.08275185C 
5  -0.3903164OA
6  0.10727844C 
7  -0.3876524OA
8  0.09929448C 
9  -0.3886235OA
10 0.05393703C 
11 -0.3054980NA
12 0.02554505C 
13 -0.0022745C 
14 0.11519229C 
15 -0.3847003OA
16 0.07452002C 
17 -0.3932762OA
18 0.08792346C 
19 -0.3897416OA
20 -0.0092564C 
21 -0.0595451C 
22 0.00194483C 
23 0.12573417C 
24 -0.2328864OA
25 -0.2514285OA


$$$$
