
     RDKit          3D

 17 18  0  0  0  0  0  0  0  0999 V2000
   -2.6282    1.7224   -0.1724 C   0  0  0  0  0  0  0  0  0  0  0  0
   -1.9642    0.9068    0.9090 C   0  0  1  0  0  0  0  0  0  0  0  0
   -2.4923   -0.4833    1.0165 C   0  0  0  0  0  0  0  0  0  0  0  0
   -2.0298   -1.4079   -0.0627 C   0  0  2  0  0  0  0  0  0  0  0  0
   -2.4633   -2.6852    0.2193 O   0  0  0  0  0  0  0  0  0  0  0  0
   -0.5133   -1.3884   -0.2390 C   0  0  2  0  0  0  0  0  0  0  0  0
    0.0222   -1.6372    1.0319 O   0  0  0  0  0  0  0  0  0  0  0  0
   -0.1586    0.0589   -0.5688 C   0  0  1  0  0  0  0  0  0  0  0  0
   -0.9827    0.5012   -1.5955 O   0  0  0  0  0  0  0  0  0  0  0  0
   -0.4810    0.8706    0.6706 C   0  0  1  0  0  0  0  0  0  0  0  0
    0.1025    2.1763    0.4973 N   0  0  0  0  0  0  0  0  0  0  0  0
    1.2000    2.1060   -0.4643 C   0  0  0  0  0  3  0  0  0  0  0  0
    2.4423    1.6418    0.2530 C   0  0  0  0  0  0  0  0  0  0  0  0
    2.6487    0.1389    0.1142 C   0  0  1  0  0  0  0  0  0  0  0  0
    3.9896   -0.1801    0.0884 O   0  0  0  0  0  0  0  0  0  0  0  0
    1.9742   -0.5940    1.2569 C   0  0  0  0  0  3  0  0  0  0  0  0
    1.3341   -1.7467    0.8505 O   0  0  0  0  0  0  0  0  0  0  0  0
  2  1  1  6
  2  3  1  0
  3  4  1  0
  4  5  1  1
  4  6  1  0
  6  7  1  1
  6  8  1  0
  8  9  1  6
  8 10  1  0
 10 11  1  6
 11 12  1  0
 12 13  1  0
 13 14  1  0
 14 15  1  1
 14 16  1  0
 16 17  1  0
 10  2  1  0
 17  7  1  0
M  RAD  2  12   2  16   2
M  END
>  <fragInfo>  (1) 
1 2 3 4 5 6 7 8 9 10 11 12 13 14 15 16 17


>  <torsionInfo>  (1) 


>  <atomInfo>  (1) 
1  -0.0608232C 
2  -0.0236237C 
3  -0.0200375C 
4  0.08629475C 
5  -0.3901743OA
6  0.14598518C 
7  -0.2273148OA
8  0.10142000C 
9  -0.3885371OA
10 0.03852918C 
11 -0.3066575NA
12 0.02512129C 
13 -0.0071893C 
14 0.08770342C 
15 -0.3901190OA
16 0.15052267C 
17 -0.2271283OA


$$$$
