
     RDKit          3D

 19 18  0  0  0  0  0  0  0  0999 V2000
   -4.6454   -2.2341   -0.1588 O   0  0  0  0  0  0  0  0  0  0  0  0
   -3.6690   -2.4195    0.7227 O   0  0  0  0  0  0  0  0  0  0  0  0
   -2.4621   -2.1953    0.0636 C   0  0  0  0  0  3  0  0  0  0  0  0
   -2.5728   -1.0712   -0.7203 O   0  0  0  0  0  0  0  0  0  0  0  0
   -2.1009    0.0489   -0.0714 C   0  0  2  0  0  0  0  0  0  0  0  0
   -2.2381    1.2522   -0.9563 C   0  0  0  0  0  0  0  0  0  0  0  0
   -1.7860    2.4135   -0.3746 O   0  0  0  0  0  0  0  0  0  0  0  0
   -0.5823   -0.1582    0.2281 C   0  0  1  0  0  0  0  0  0  0  0  0
    0.1234   -0.3494   -1.0530 C   0  0  0  0  0  3  0  0  0  0  0  0
    1.5319   -0.7657   -0.8793 C   0  0  0  0  0  0  0  0  0  0  0  0
    1.6666   -2.0856   -0.1260 C   0  0  0  0  0  3  0  0  0  0  0  0
    3.1207   -2.4241    0.0008 C   0  0  0  0  0  0  0  0  0  0  0  0
    3.9604   -1.5102   -0.5643 F   0  0  0  0  0  0  0  0  0  0  0  0
   -0.1828    0.9472    1.0878 C   0  0  0  0  0  0  0  0  0  0  0  0
    1.0303    1.1420    1.5641 O   0  0  0  0  0  0  0  0  0  0  0  0
    2.0318    1.4015    0.6646 C   0  0  2  0  0  0  0  0  0  0  0  0
    3.3291    1.5891    1.4436 C   0  0  0  0  0  2  0  0  0  0  0  0
    1.7767    2.5770   -0.2312 C   0  0  0  0  0  3  0  0  0  0  0  0
    1.6685    3.8420    0.6209 C   0  0  0  0  0  2  0  0  0  0  0  0
  1  2  1  0
  2  3  1  0
  3  4  1  0
  4  5  1  0
  5  6  1  6
  6  7  1  0
  5  8  1  0
  8  9  1  6
  9 10  1  0
 10 11  1  0
 11 12  1  0
 12 13  1  0
  8 14  1  0
 14 15  1  0
 15 16  1  0
 16 17  1  1
 16 18  1  0
 18 19  1  0
M  RAD  6   3   2   9   2  11   2  17   3  18   2  19   3
M  END
>  <fragInfo>  (1) 
1 2
3
4
5
6 7
8
9
10
11
12 13
14
15
16 17
18 19


>  <torsionInfo>  (1) 
2 3 0 1
3 4 1 2
4 5 2 3
5 6 3 4
5 8 3 5
8 9 5 6
8 14 5 10
9 10 6 7
10 11 7 8
11 12 8 9
14 15 10 11
15 16 11 12
16 18 12 13


>  <atomInfo>  (1) 
1  -0.2489199OA
2  -0.2014092OA
3  0.24549230C 
4  -0.3395592OA
5  0.08930346C 
6  0.06983929C 
7  -0.3936627OA
8  0.01405244C 
9  -0.0301351C 
10 -0.0440071C 
11 -0.0071949C 
12 0.09258111C 
13 -0.2507897F 
14 0.05263396C 
15 -0.3771921OA
16 0.06451209C 
17 -0.0033091C 
18 -0.0056773C 
19 -0.0287231C 


$$$$
