
     RDKit          3D

 11 11  0  0  0  0  0  0  0  0999 V2000
    3.2503    0.5935   -0.3602 O   0  0  0  0  0  0  0  0  0  0  0  0
    2.2572    0.0356    0.4720 C   0  0  0  0  0  0  0  0  0  0  0  0
    0.9420   -0.0597   -0.2593 C   0  0  2  0  0  0  0  0  0  0  0  0
    0.4962    1.1856   -0.6726 N   0  0  0  0  0  0  0  0  0  0  0  0
   -0.7766    1.6435   -0.3550 C   0  0  0  0  0  0  0  0  0  0  0  0
   -1.7113    0.7370    0.3297 C   0  0  2  0  0  0  0  0  0  0  0  0
   -1.5973    0.8731    1.7146 O   0  0  0  0  0  0  0  0  0  0  0  0
   -1.4416   -0.7186    0.0117 C   0  0  1  0  0  0  0  0  0  0  0  0
   -1.7125   -0.9860   -1.3187 O   0  0  0  0  0  0  0  0  0  0  0  0
   -0.0129   -0.9872    0.3766 C   0  0  1  0  0  0  0  0  0  0  0  0
    0.3064   -2.3168    0.0612 O   0  0  0  0  0  0  0  0  0  0  0  0
  1  2  1  0
  3  2  1  1
  3  4  1  0
  4  5  1  0
  5  6  1  0
  6  7  1  1
  6  8  1  0
  8  9  1  6
  8 10  1  0
 10 11  1  6
 10  3  1  0
M  END
>  <fragInfo>  (1) 
3 4 5 6 7 8 9 10 11
1 2


>  <torsionInfo>  (1) 
2 3 1 0


>  <atomInfo>  (1) 
1  -0.3946490OA
2  0.06105637C 
3  0.05902457C 
4  -0.3067635NA
5  0.02436730C 
6  0.09488935C 
7  -0.3889905OA
8  0.10855016C 
9  -0.3875979OA
10 0.09995681C 
11 -0.3885947OA


$$$$
