
     RDKit          3D

 28 30  0  0  0  0  0  0  0  0999 V2000
    5.5232    1.2523   -2.9838 C   0  0  0  0  0  0  0  0  0  0  0  0
    4.4817    1.4562   -2.0752 O   0  0  0  0  0  0  0  0  0  0  0  0
    3.8314    0.2400   -1.9185 C   0  0  0  0  0  0  0  0  0  0  0  0
    2.6846    0.2972   -0.9691 C   0  0  0  0  0  0  0  0  0  0  0  0
    3.0251    0.7028    0.4069 C   0  0  0  0  0  0  0  0  0  0  0  0
    1.8508    0.7462    1.3193 C   0  0  0  0  0  0  0  0  0  0  0  0
    1.1742   -0.5007    1.4752 C   0  0  2  0  0  0  0  0  0  0  0  0
    0.5370   -1.2082    0.3638 C   0  0  0  0  0  0  0  0  0  0  0  0
   -0.0941   -0.6102   -0.6048 C   0  0  0  0  0  0  0  0  0  0  0  0
   -0.4254   -1.3900   -1.8071 C   0  0  1  0  0  0  0  0  0  0  0  0
    0.6129   -1.3465   -2.7091 O   0  0  0  0  0  0  0  0  0  0  0  0
   -0.6657   -2.8211   -1.3639 C   0  0  0  0  0  0  0  0  0  0  0  0
   -0.2245   -3.3645   -0.2480 C   0  0  0  0  0  0  0  0  0  0  0  0
    0.5930   -2.6406    0.7650 C   0  0  2  0  0  0  0  0  0  0  0  0
    0.1193   -2.7899    2.1926 C   0  0  0  0  0  0  0  0  0  0  0  0
    0.0369   -1.5317    3.0785 C   0  0  0  0  0  0  0  0  0  0  0  0
   -0.1909   -0.4075    2.2979 C   0  0  2  0  0  0  0  0  0  0  0  0
   -1.3984   -1.0161    1.4707 C   0  0  0  0  0  0  0  0  0  0  0  0
   -0.5329    0.9243    2.1139 C   0  0  1  0  0  0  0  0  0  0  0  0
    0.3502    1.9139    2.6082 O   0  0  0  0  0  0  0  0  0  0  0  0
   -0.9633    1.3189    0.7710 C   0  0  0  0  0  0  0  0  0  0  0  0
   -0.6152    0.8291   -0.5441 C   0  0  2  0  0  0  0  0  0  0  0  0
   -1.7865    0.9131   -1.4910 C   0  0  1  0  0  0  0  0  0  0  0  0
   -2.8324    0.0836   -1.2185 O   0  0  0  0  0  0  0  0  0  0  0  0
   -2.1963    2.3027   -1.7555 C   0  0  0  0  0  0  0  0  0  0  0  0
   -3.4477    2.6555   -1.4635 C   0  0  0  0  0  0  0  0  0  0  0  0
   -4.4415    1.7052   -0.8837 C   0  0  0  0  0  0  0  0  0  0  0  0
   -5.0055    2.2862    0.6807 Cl  0  0  0  0  0  0  0  0  0  0  0  0
  1  2  1  0
  2  3  1  0
  3  4  1  0
  4  5  1  0
  5  6  1  0
  7  6  1  6
  7  8  1  0
  8  9  2  0
  9 10  1  0
 10 11  1  6
 10 12  1  0
 12 13  2  0
 13 14  1  0
 14 15  1  1
 15 16  1  0
 16 17  1  0
 17 18  1  6
 17 19  1  0
 19 20  1  6
 19 21  1  0
 22 21  1  1
 22 23  1  0
 23 24  1  1
 23 25  1  0
 25 26  2  3
 26 27  1  0
 27 28  1  0
 17  7  1  0
 14  8  1  0
 22  9  1  0
M  END
>  <fragInfo>  (1) 
7 8 9 10 11 12 13 14 15 16 17 18 19 20 21 22
1 2
3
4
5
6
23 24
25 26
27 28


>  <torsionInfo>  (1) 
6 7 5 0
22 23 0 6
2 3 1 2
3 4 2 3
4 5 3 4
5 6 4 5
23 25 6 7
26 27 7 8


>  <atomInfo>  (1) 
1  0.03545618C 
2  -0.3846901OA
3  0.04617662C 
4  -0.0295968C 
5  -0.0505212C 
6  -0.0459556C 
7  -0.0114737C 
8  -0.0570998C 
9  -0.0318482C 
10 0.09382836C 
11 -0.3846181OA
12 -0.0554275C 
13 -0.0784396C 
14 -0.0015095C 
15 -0.0425303C 
16 -0.0439412C 
17 8.99059051C 
18 -0.0565864C 
19 0.06058931C 
20 -0.3925145OA
21 -0.0169329C 
22 0.01504473C 
23 0.07882462C 
24 -0.3884160OA
25 -0.0584243C 
26 -0.0712496C 
27 0.04045993C 
28 -0.1222075Cl


$$$$
