
     RDKit          3D

 70 74  0  0  0  0  0  0  0  0999 V2000
   11.8428    2.2157    0.7283 C   0  0  0  0  0  0  0  0  0  0  0  0
   11.7014    0.8920    1.4205 C   0  0  0  0  0  3  0  0  0  0  0  0
   10.2988    0.3210    1.3116 C   0  0  2  0  0  0  0  0  0  0  0  0
   10.3220   -1.0078    2.0546 C   0  0  2  0  0  0  0  0  0  0  0  0
   11.6172   -1.5486    2.0500 O   0  0  0  0  0  0  0  0  0  0  0  0
    9.4510   -1.9999    1.2902 C   0  0  2  0  0  0  0  0  0  0  0  0
    9.2502   -3.1282    2.0790 O   0  0  0  0  0  0  0  0  0  0  0  0
   10.0801   -2.3518   -0.0338 C   0  0  0  0  0  3  0  0  0  0  0  0
   10.6336   -1.0941   -0.6540 C   0  0  1  0  0  0  0  0  0  0  0  0
   10.6051   -1.1557   -2.0435 O   0  0  0  0  0  0  0  0  0  0  0  0
    9.8917    0.1092   -0.1172 C   0  0  1  0  0  0  0  0  0  0  0  0
    8.4523   -0.0875   -0.2581 C   0  0  0  0  0  3  0  0  0  0  0  0
    7.4983    0.9803    0.0495 C   0  0  1  0  0  0  0  0  0  0  0  0
    7.5155    1.5032    1.4395 C   0  0  0  0  0  0  0  0  0  0  0  0
    8.5912    2.2912    1.7302 O   0  0  0  0  0  0  0  0  0  0  0  0
    8.6269    3.4051    0.8932 C   0  0  0  0  0  0  0  0  0  0  0  0
    7.5420    2.0182   -0.9017 O   0  0  0  0  0  0  0  0  0  0  0  0
    6.4211    2.6669   -0.9870 O   0  0  0  0  0  0  0  0  0  0  0  0
    5.5292    2.0142   -1.8771 C   0  0  1  0  0  0  0  0  0  0  0  0
    5.7633    2.4076   -3.1912 O   0  0  0  0  0  0  0  0  0  0  0  0
    5.8172    0.5327   -1.6671 C   0  0  2  0  0  0  0  0  0  0  0  0
    4.6863   -0.3289   -2.1411 C   0  0  0  0  0  2  0  0  0  0  0  0
    6.0845    0.3608   -0.1925 C   0  0  1  0  0  0  0  0  0  0  0  0
    6.1088   -0.9804    0.1993 O   0  0  0  0  0  0  0  0  0  0  0  0
    4.9555   -1.5548    0.0193 O   0  0  0  0  0  0  0  0  0  0  0  0
    4.4267   -2.0926    1.0770 O   0  0  0  0  0  0  0  0  0  0  0  0
    3.0263   -2.0408    1.0481 C   0  0  0  0  0  3  0  0  0  0  0  0
    2.6600   -0.9415    0.3244 O   0  0  0  0  0  0  0  0  0  0  0  0
    1.7042   -1.1147   -0.6260 C   0  0  2  0  0  0  0  0  0  0  0  0
    1.5282    0.2128   -1.3370 O   0  0  0  0  0  0  0  0  0  0  0  0
    0.4314   -0.4447   -0.7957 C   0  0  2  0  0  0  0  0  0  0  0  0
   -0.5134    0.0442    0.1434 C   0  0  0  0  0  0  0  0  0  0  0  0
   -1.1727   -0.8773    1.0729 C   0  0  2  0  0  0  0  0  0  0  0  0
   -0.1344   -1.7802    2.1920 S   0  0  0  0  0  0  0  0  0  0  0  0
   -2.1691   -1.7028    0.5429 O   0  0  0  0  0  0  0  0  0  0  0  0
   -3.3121   -1.1453   -0.0622 C   0  0  0  0  0  0  0  0  0  0  0  0
   -4.0283   -1.8956   -0.8745 C   0  0  0  0  0  0  0  0  0  0  0  0
   -5.2296   -1.2813   -1.5007 C   0  0  1  0  0  0  0  0  0  0  0  0
   -5.8527   -2.4131   -2.7720 S   0  0  0  0  0  0  0  0  0  0  0  0
   -6.4601   -3.9049   -1.9381 C   0  0  0  0  0  0  0  0  0  0  0  0
   -5.2726   -4.5935   -1.3190 C   0  0  2  0  0  0  0  0  0  0  0  0
   -4.3892   -4.9115   -2.3437 O   0  0  0  0  0  0  0  0  0  0  0  0
   -5.6475   -5.7591   -0.4588 C   0  0  0  0  0  3  0  0  0  0  0  0
   -6.3320   -6.7485   -1.1551 O   0  0  0  0  0  0  0  0  0  0  0  0
   -6.2487   -1.0100   -0.6183 O   0  0  0  0  0  0  0  0  0  0  0  0
   -4.7346    0.0200   -2.1214 C   0  0  2  0  0  0  0  0  0  0  0  0
   -3.6828   -0.3384   -2.9776 O   0  0  0  0  0  0  0  0  0  0  0  0
   -4.1885    0.9010   -1.0626 C   0  0  1  0  0  0  0  0  0  0  0  0
   -3.7214    0.2431    0.1903 C   0  0  1  0  0  0  0  0  0  0  0  0
   -4.7381    0.2487    1.3074 C   0  0  0  0  0  3  0  0  0  0  0  0
   -4.6244   -0.9859    2.1935 C   0  0  0  0  0  0  0  0  0  0  0  0
   -5.9223   -1.2521    2.6379 O   0  0  0  0  0  0  0  0  0  0  0  0
   -6.3808   -2.3881    2.2179 O   0  0  0  0  0  0  0  0  0  0  0  0
   -8.1421   -2.1048    1.9172 S   0  0  2  0  0  0  0  0  0  0  0  0
   -8.8885   -3.4393    1.1275 O   0  0  0  0  0  0  0  0  0  0  0  0
   -8.4977   -0.6454    1.9300 C   0  0  0  0  0  3  0  0  0  0  0  0
   -8.9091    0.0201    0.7539 O   0  0  0  0  0  0  0  0  0  0  0  0
   -8.9549    1.3971    0.9800 C   0  0  0  0  0  0  0  0  0  0  0  0
   -8.2331    2.1593   -0.1092 C   0  0  0  0  0  3  0  0  0  0  0  0
   -3.2953    1.9794   -1.5747 C   0  0  0  0  0  0  0  0  0  0  0  0
   -3.9759    3.2104   -1.5401 O   0  0  0  0  0  0  0  0  0  0  0  0
   -4.3221    3.4890   -0.3078 O   0  0  0  0  0  0  0  0  0  0  0  0
   -5.6530    3.2388   -0.0782 C   0  0  0  0  0  0  0  0  0  0  0  0
   -6.4153    3.7702   -1.1168 O   0  0  0  0  0  0  0  0  0  0  0  0
   -7.4844    4.4891   -0.6349 C   0  0  2  0  0  0  0  0  0  0  0  0
   -7.0406    5.4769    0.2328 O   0  0  0  0  0  0  0  0  0  0  0  0
   -8.5256    3.6326    0.0490 C   0  0  1  0  0  0  0  0  0  0  0  0
   -9.7833    3.8823   -0.4659 O   0  0  0  0  0  0  0  0  0  0  0  0
  -10.1589    5.2177   -0.3735 C   0  0  0  0  0  3  0  0  0  0  0  0
  -10.0275    5.6983    1.0697 C   0  0  0  0  0  2  0  0  0  0  0  0
  1  2  1  0
  3  2  1  6
  3  4  1  0
  4  5  1  6
  4  6  1  0
  6  7  1  1
  6  8  1  0
  8  9  1  0
  9 10  1  6
  9 11  1  0
 11 12  1  1
 13 12  1  1
 13 14  1  0
 14 15  1  0
 15 16  1  0
 13 17  1  0
 17 18  1  0
 18 19  1  0
 19 20  1  6
 19 21  1  0
 21 22  1  1
 21 23  1  0
 23 24  1  6
 24 25  1  0
 25 26  1  0
 26 27  1  0
 27 28  1  0
 29 28  1  1
 29 30  1  0
 29 31  1  0
 31 32  1  1
 32 33  1  0
 33 34  1  6
 33 35  1  0
 35 36  1  0
 36 37  2  0
 37 38  1  0
 38 39  1  0
 39 40  1  0
 40 41  1  0
 41 42  1  6
 41 43  1  0
 43 44  1  0
 38 45  1  1
 38 46  1  0
 46 47  1  6
 46 48  1  0
 48 49  1  0
 49 50  1  1
 50 51  1  0
 51 52  1  0
 52 53  1  0
 53 54  1  0
 54 55  1  6
 54 56  1  0
 56 57  1  0
 57 58  1  0
 58 59  1  0
 48 60  1  6
 60 61  1  0
 61 62  1  0
 62 63  1  0
 63 64  1  0
 64 65  1  0
 65 66  1  1
 65 67  1  0
 67 68  1  6
 68 69  1  0
 69 70  1  0
 11  3  1  0
 23 13  1  0
 31 30  1  0
 49 36  1  0
 67 59  1  0
M  RAD  8   2   2   8   2  12   2  22   3  27   2  43   2  50   2  56   2
M  RAD  3  59   2  69   2  70   3
M  END
>  <fragInfo>  (1) 
36 37 38 45 46 47 48 49 50 51 52 53 54 55 56 57 58 59 60 61 62 63 64 65 66 67
1 2
3 4 5 6 7 8 9 10 11
12
13 17 18 19 20 21 22 23
14
15 16
24
25
26
27
28
29 30 31
32
33 34
35
39
40
41 42
43 44
68
69 70


>  <torsionInfo>  (1) 
35 36 15 0
38 39 0 16
67 68 0 20
2 3 1 2
11 12 2 3
12 13 3 4
13 14 4 5
23 24 4 7
14 15 5 6
24 25 7 8
25 26 8 9
26 27 9 10
27 28 10 11
28 29 11 12
31 32 12 13
32 33 13 14
33 35 14 15
39 40 16 17
40 41 17 18
41 43 18 19
68 69 20 21


>  <atomInfo>  (1) 
1  -0.0618675C 
2  -0.0355408C 
3  -0.0041590C 
4  0.08369549C 
5  -0.3901073OA
6  0.08590396C 
7  -0.3900144OA
8  0.02155511C 
9  0.06340076C 
10 -0.3924073OA
11 -0.0029177C 
12 0.00807249C 
13 0.15995239C 
14 0.08153171C 
15 -0.3814397OA
16 0.03561089C 
17 -0.2216293OA
18 -0.2035232OA
19 0.19410390C 
20 -0.3652991OA
21 0.04886299C 
22 -0.0235023C 
23 0.13875284C 
24 -0.1989083OA
25 -0.0647566OA
26 -0.1680637OA
27 0.25106031C 
28 -0.3129509OA
29 0.18748716C 
30 -0.3411008OA
31 0.11613594C 
32 0.02515825C 
33 0.14343371C 
34 -0.1355224SA
35 -0.4841748OA
36 0.10143852C 
37 -0.0018729C 
38 0.15848718C 
39 -0.1177645SA
40 0.02527370C 
41 0.09165256C 
42 -0.3894567OA
43 0.10906961C 
44 -0.3875766OA
45 -0.3729725OA
46 0.10188009C 
47 -0.3884262OA
48 0.02571418C 
49 0.02963256C 
50 0.00158554C 
51 0.08736040C 
52 -0.2237808OA
53 -0.1616059OA
54 0.02130367S 
55 -0.3255257OA
56 0.16790317C 
57 -0.3607341OA
58 0.05435275C 
59 0.02132221C 
60 0.08846445C 
61 -0.2339158OA
62 -0.2078245OA
63 0.18352813C 
64 -0.3208492OA
65 0.18391976C 
66 -0.3657254OA
67 0.11420500C 
68 -0.3662812OA
69 0.08814622C 
70 -0.0008257C 


$$$$
