
     RDKit          3D

 25 27  0  0  0  0  0  0  0  0999 V2000
    1.8371    4.2407   -0.4851 O   0  0  0  0  0  0  0  0  0  0  0  0
    1.3446    3.0725   -0.5118 C   0  0  0  0  0  0  0  0  0  0  0  0
    0.7594    2.5452   -1.6486 N   0  0  0  0  0  0  0  0  0  0  0  0
   -0.5257    2.6045   -2.2273 C   0  0  0  0  0  0  0  0  0  0  0  0
   -1.4484    1.6318   -1.6103 C   0  0  0  0  0  0  0  0  0  0  0  0
   -0.9438    0.8527   -0.6111 C   0  0  0  0  0  0  0  0  0  0  0  0
   -1.7507   -0.0645    0.0180 C   0  0  0  0  0  0  0  0  0  0  0  0
   -3.0600   -0.1566   -0.3995 C   0  0  0  0  0  0  0  0  0  0  0  0
   -4.1631   -1.3004    0.3641 Cl  0  0  0  0  0  0  0  0  0  0  0  0
   -3.5950    0.6117   -1.4006 C   0  0  0  0  0  0  0  0  0  0  0  0
   -2.7537    1.5395   -2.0267 C   0  0  0  0  0  0  0  0  0  0  0  0
    1.4139    2.2742    0.7180 C   0  0  0  0  0  0  0  0  0  0  0  0
    1.8447    1.0861    0.8615 C   0  0  0  0  0  0  0  0  0  0  0  0
    2.3716   -0.2843    0.8718 S   0  0  2  0  0  0  0  0  0  0  0  0
    3.8353   -0.8297   -0.1181 C   0  0  0  0  0  0  0  0  0  0  0  0
    3.6079   -1.9510   -0.8987 C   0  0  0  0  0  0  0  0  0  0  0  0
    2.6127   -2.7326   -1.0310 C   0  0  0  0  0  0  0  0  0  0  0  0
    2.7410   -3.8846   -2.0057 C   0  0  0  0  0  0  0  0  0  0  0  0
    1.3915   -2.5430   -0.3324 C   0  0  0  0  0  0  0  0  0  0  0  0
    1.1197   -1.5602    0.5178 C   0  0  0  0  0  0  0  0  0  0  0  0
   -0.1083   -1.4635    1.2270 C   0  0  0  0  0  0  0  0  0  0  0  0
   -1.2616   -0.9149    1.1136 C   0  0  0  0  0  0  0  0  0  0  0  0
   -2.2739   -1.0869    2.1211 O   0  0  0  0  0  0  0  0  0  0  0  0
   -1.9081   -1.3613    3.4537 C   0  0  0  0  0  0  0  0  0  0  0  0
   -1.0872   -0.3253    4.0403 N   0  0  0  0  0  0  0  0  0  0  0  0
  1  2  2  0
  2  3  1  0
  3  4  1  0
  4  5  1  0
  5  6  1  0
  6  7  2  0
  7  8  1  0
  8  9  1  0
  8 10  2  0
 10 11  1  0
  2 12  1  0
 12 13  2  3
 13 14  1  0
 14 15  1  6
 15 16  1  0
 16 17  2  0
 17 18  1  0
 17 19  1  0
 19 20  2  0
 20 21  1  0
 21 22  2  3
 22 23  1  0
 23 24  1  0
 24 25  1  0
 11  5  2  0
 22  7  1  0
 20 14  1  0
M  END
>  <fragInfo>  (1) 
1 2 3 4 5 6 7 8 9 10 11 12 13 14 15 16 17 18 19 20 21 22
23
24 25


>  <torsionInfo>  (1) 
22 23 0 1
23 24 1 2


>  <atomInfo>  (1) 
1  -0.2699839OA
2  0.24420866C 
3  -0.3484610N 
4  0.04306256C 
5  -0.0279527A 
6  -0.0447437A 
7  0.03561869A 
8  0.05153139A 
9  -0.0835411Cl
10 -0.0424323A 
11 -0.0557307A 
12 0.00778937C 
13 -0.0395211C 
14 -0.2027080S 
15 0.00065366C 
16 -0.0727496C 
17 -0.0532801C 
18 -0.0400221C 
19 -0.0472213C 
20 -0.0047957C 
21 -0.0069638C 
22 0.13060831C 
23 -0.4778805OA
24 0.13663263C 
25 -0.2988704NA


$$$$
