
     RDKit          2D

 45 44  0  0  0  0  0  0  0  0999 V2000
    0.0000    0.0000    0.0000 C   0  0  0  0  0  0  0  0  0  0  0  0
    1.2990    0.7500    0.0000 C   0  0  0  0  0  0  0  0  0  0  0  0
    2.5981   -0.0000    0.0000 C   0  0  0  0  0  0  0  0  0  0  0  0
    3.8971    0.7500    0.0000 C   0  0  0  0  0  0  0  0  0  0  0  0
    2.5981   -1.5000    0.0000 C   0  0  0  0  0  0  0  0  0  0  0  0
    1.2990   -2.2500    0.0000 O   0  0  0  0  0  0  0  0  0  0  0  0
    3.8971   -2.2500    0.0000 O   0  0  0  0  0  0  0  0  0  0  0  0
    3.8971   -3.7500    0.0000 C   0  0  0  0  0  3  0  0  0  0  0  0
    5.1962   -4.5000    0.0000 C   0  0  0  0  0  0  0  0  0  0  0  0
    5.1962   -6.0000    0.0000 C   0  0  0  0  0  0  0  0  0  0  0  0
    3.8971   -6.7500    0.0000 O   0  0  0  0  0  0  0  0  0  0  0  0
    6.4952   -6.7500    0.0000 C   0  0  0  0  0  0  0  0  0  0  0  0
    6.4952   -8.2500    0.0000 C   0  0  0  0  0  0  0  0  0  0  0  0
    7.7942   -9.0000    0.0000 C   0  0  0  0  0  0  0  0  0  0  0  0
    7.7942  -10.5000    0.0000 C   0  0  0  0  0  3  0  0  0  0  0  0
    9.0933  -11.2500    0.0000 C   0  0  0  0  0  0  0  0  0  0  0  0
    9.0933  -12.7500    0.0000 C   0  0  0  0  0  0  0  0  0  0  0  0
    7.7942  -13.5000    0.0000 O   0  0  0  0  0  0  0  0  0  0  0  0
    7.7942  -15.0000    0.0000 C   0  0  0  0  0  0  0  0  0  0  0  0
    6.4952  -15.7500    0.0000 C   0  0  0  0  0  3  0  0  0  0  0  0
    6.4952  -17.2500    0.0000 C   0  0  0  0  0  3  0  0  0  0  0  0
    5.1962  -18.0000    0.0000 O   0  0  0  0  0  0  0  0  0  0  0  0
    5.1962  -19.5000    0.0000 O   0  0  0  0  0  0  0  0  0  0  0  0
    3.8971  -20.2500    0.0000 C   0  0  0  0  0  0  0  0  0  0  0  0
    3.8971  -21.7500    0.0000 O   0  0  0  0  0  0  0  0  0  0  0  0
    2.5981  -19.5000    0.0000 O   0  0  0  0  0  0  0  0  0  0  0  0
    1.2990  -20.2500    0.0000 C   0  0  0  0  0  3  0  0  0  0  0  0
    0.0000  -19.5000    0.0000 O   0  0  0  0  0  0  0  0  0  0  0  0
   10.3923  -13.5000    0.0000 O   0  0  0  0  0  0  0  0  0  0  0  0
   10.3923  -15.0000    0.0000 C   0  0  0  0  0  3  0  0  0  0  0  0
   11.6913  -15.7500    0.0000 C   0  0  0  0  0  0  0  0  0  0  0  0
   11.6913  -17.2500    0.0000 C   0  0  0  0  0  0  0  0  0  0  0  0
   12.9904  -18.0000    0.0000 C   0  0  0  0  0  3  0  0  0  0  0  0
   12.9904  -19.5000    0.0000 C   0  0  0  0  0  0  0  0  0  0  0  0
   14.2894  -20.2500    0.0000 C   0  0  0  0  0  0  0  0  0  0  0  0
   14.2894  -21.7500    0.0000 C   0  0  0  0  0  1  0  0  0  0  0  0
   15.5885  -19.5000    0.0000 C   0  0  0  0  0  0  0  0  0  0  0  0
   16.8875  -20.2500    0.0000 C   0  0  0  0  0  0  0  0  0  0  0  0
   18.1865  -19.5000    0.0000 O   0  0  0  0  0  0  0  0  0  0  0  0
   14.2894  -17.2500    0.0000 C   0  0  0  0  0  0  0  0  0  0  0  0
   14.2894  -15.7500    0.0000 C   0  0  0  0  0  0  0  0  0  0  0  0
   12.9904  -15.0000    0.0000 C   0  0  0  0  0  0  0  0  0  0  0  0
   15.5885  -15.0000    0.0000 O   0  0  0  0  0  0  0  0  0  0  0  0
   15.5885  -13.5000    0.0000 C   0  0  0  0  0  0  0  0  0  0  0  0
   16.8875  -12.7500    0.0000 O   0  0  0  0  0  0  0  0  0  0  0  0
  1  2  1  0
  2  3  1  0
  3  4  1  6
  3  5  1  0
  5  6  2  0
  5  7  1  0
  7  8  1  0
  8  9  1  0
  9 10  1  0
 10 11  1  1
 10 12  1  0
 12 13  2  3
 13 14  1  0
 14 15  1  0
 15 16  1  0
 17 16  1  1
 17 18  1  0
 18 19  1  0
 19 20  1  0
 20 21  1  0
 21 22  1  0
 22 23  1  0
 23 24  1  0
 24 25  1  1
 24 26  1  0
 26 27  1  0
 27 28  1  0
 17 29  1  0
 29 30  1  0
 30 31  1  0
 31 32  2  3
 32 33  1  0
 33 34  1  0
 34 35  1  0
 35 36  1  6
 35 37  1  0
 37 38  1  0
 38 39  2  0
 33 40  1  0
 40 41  1  0
 41 42  1  6
 41 43  1  0
 43 44  1  0
 44 45  2  0
M  RAD  8   8   2  15   2  20   2  21   2  27   2  30   2  33   2  36   2
M  END
>  <fragInfo>  (1) 
1 2
3 4
5 6
7
8
9
10 11
12 13
14
15
16
17
18
19
20
21
22
23
24 25
26
27 28
29
30
31 32
33
34
35 36
37
38 39
40
41 42
43
44 45


>  <torsionInfo>  (1) 
2 3 0 1
3 5 1 2
5 7 2 3
7 8 3 4
8 9 4 5
9 10 5 6
10 12 6 7
13 14 7 8
14 15 8 9
15 16 9 10
16 17 10 11
17 18 11 12
17 29 11 21
18 19 12 13
19 20 13 14
20 21 14 15
21 22 15 16
22 23 16 17
23 24 17 18
24 26 18 19
26 27 19 20
29 30 21 22
30 31 22 23
32 33 23 24
33 34 24 25
33 40 24 29
34 35 25 26
35 37 26 27
37 38 27 28
40 41 29 30
41 43 30 31
43 44 31 32


>  <atomInfo>  (1) 
1  -0.0645670C 
2  -0.0430349C 
3  0.05379708C 
4  -0.0519474C 
5  0.30854748C 
6  -0.2519620OA
7  -0.4580910OA
8  0.14145517C 
9  0.01777033C 
10 0.07572121C 
11 -0.3888997OA
12 -0.0600598C 
13 -0.0856965C 
14 -0.0316600C 
15 -0.0298107C 
16 0.00181033C 
17 0.15833126C 
18 -0.3522189OA
19 0.05571518C 
20 0.02229531C 
21 0.12825421C 
22 -0.2249986OA
23 -0.1742282OA
24 0.30066295C 
25 -0.3439149OA
26 -0.2930635OA
27 0.21150888C 
28 -0.3638075OA
29 -0.3423056OA
30 0.10861277C 
31 -0.0562713C 
32 -0.0786123C 
33 0.00131253C 
34 -0.0392654C 
35 -0.0265030C 
36 -0.0051899C 
37 0.00647502C 
38 0.11978952C 
39 -0.3033911OA
40 -0.0060438C 
41 0.09956888C 
42 -0.0276277C 
43 -0.4648493OA
44 0.29284296C 
45 -0.2561271OA


$$$$
