
     RDKit          3D

 68 71  0  0  0  0  0  0  0  0999 V2000
   13.2830   -3.7855   -2.4016 C   0  0  0  0  0  0  0  0  0  0  0  0
   12.4799   -4.1151   -1.2882 O   0  0  0  0  0  0  0  0  0  0  0  0
   11.1546   -4.4958   -1.4321 C   0  0  0  0  0  0  0  0  0  0  0  0
   10.1285   -3.6599   -1.3798 C   0  0  0  0  0  0  0  0  0  0  0  0
   10.4659   -2.2323   -1.1502 C   0  0  0  0  0  0  0  0  0  0  0  0
    9.5189   -1.3034   -1.0785 C   0  0  0  0  0  0  0  0  0  0  0  0
    9.8260    0.1407   -0.8666 C   0  0  1  0  0  0  0  0  0  0  0  0
   11.1734    0.4220   -0.3133 C   0  0  0  0  0  0  0  0  0  0  0  0
   12.1558   -0.6667   -0.4754 C   0  0  0  0  0  0  0  0  0  0  0  0
   13.5550   -0.4256   -0.3301 C   0  0  0  0  0  0  0  0  0  0  0  0
   14.3701    0.3436   -0.0308 C   0  0  0  0  0  0  0  0  0  0  0  0
   15.0340    1.4534    0.3807 C   0  0  0  0  0  0  0  0  0  0  0  0
   16.3546    1.5631    0.4691 C   0  0  0  0  0  0  0  0  0  0  0  0
   17.3341    2.4495    0.8153 O   0  0  0  0  0  0  0  0  0  0  0  0
   17.4196    0.5719    0.1602 C   0  0  0  0  0  0  0  0  0  0  0  0
   18.2814    1.5054    0.5188 C   0  0  0  0  0  0  0  0  0  0  0  0
   11.7981   -1.8590   -0.8468 N   0  0  0  0  0  0  0  0  0  0  0  0
    9.9154    0.7382   -2.3339 C   0  0  0  0  0  0  0  0  0  0  0  0
    8.7434    0.8237   -0.1781 C   0  0  0  0  0  0  0  0  0  0  0  0
    8.3036    0.4666    1.0314 O   0  0  0  0  0  0  0  0  0  0  0  0
    7.7855   -0.7764    1.1765 C   0  0  0  0  0  0  0  0  0  0  0  0
    6.6621   -1.1777    0.3774 C   0  0  0  0  0  0  0  0  0  0  0  0
    6.0025   -0.5715   -0.5043 C   0  0  0  0  0  0  0  0  0  0  0  0
    6.1147    0.7486   -1.0496 C   0  0  0  0  0  0  0  0  0  0  0  0
    4.9129    1.5722   -1.0893 C   0  0  0  0  0  0  0  0  0  0  0  0
    4.2590    1.8614    0.1659 C   0  0  0  0  0  0  0  0  0  0  0  0
    2.9859    1.5311    0.3185 C   0  0  0  0  0  0  0  0  0  0  0  0
    2.2635    0.8605   -0.8190 C   0  0  0  0  0  0  0  0  0  0  0  0
    2.2765    1.8292    1.5366 C   0  0  0  0  0  0  0  0  0  0  0  0
    0.9923    1.4913    1.6476 C   0  0  0  0  0  0  0  0  0  0  0  0
    0.3167    0.8270    0.5570 C   0  0  0  0  0  0  0  0  0  0  0  0
   -0.9569    0.4725    0.6610 C   0  0  0  0  0  0  0  0  0  0  0  0
   -1.5666   -0.1837   -0.4792 C   0  0  0  0  0  0  0  0  0  0  0  0
   -0.7694   -0.4553   -1.6915 C   0  0  0  0  0  0  0  0  0  0  0  0
   -2.8157   -0.5497   -0.4564 C   0  0  0  0  0  0  0  0  0  0  0  0
   -3.5879   -0.3162    0.6684 O   0  0  0  0  0  0  0  0  0  0  0  0
   -4.5718    0.7281    0.7255 C   0  0  2  0  0  0  0  0  0  0  0  0
   -5.5123    0.4923   -0.2743 O   0  0  0  0  0  0  0  0  0  0  0  0
   -6.8793    0.3593   -0.0798 C   0  0  0  0  0  0  0  0  0  0  0  0
   -3.8286    2.0066    0.4141 C   0  0  0  0  0  0  0  0  0  0  0  0
   -4.5660    2.7379   -0.5053 O   0  0  0  0  0  0  0  0  0  0  0  0
   -5.6466    3.3770    0.0625 C   0  0  0  0  0  0  0  0  0  0  0  0
   -5.6004    3.3379    1.5516 C   0  0  0  0  0  0  0  0  0  0  0  0
   -6.9295    2.9380    2.1350 C   0  0  0  0  0  0  0  0  0  0  0  0
   -8.0265    3.3820    1.5505 C   0  0  0  0  0  0  0  0  0  0  0  0
   -7.9611    4.2595    0.3429 C   0  0  0  0  0  0  0  0  0  0  0  0
   -8.9070    3.7685   -0.7137 C   0  0  0  0  0  0  0  0  0  0  0  0
   -8.3320    3.7341   -1.9858 O   0  0  0  0  0  0  0  0  0  0  0  0
   -8.5066    2.4941   -2.5527 C   0  0  0  0  0  0  0  0  0  0  0  0
   -7.4390    1.5244   -2.1181 C   0  0  0  0  0  0  0  0  0  0  0  0
   -7.8249    0.7935   -0.8593 C   0  0  0  0  0  0  0  0  0  0  0  0
   -9.1866    0.6418   -0.6334 O   0  0  0  0  0  0  0  0  0  0  0  0
   -9.6872   -0.6157   -0.2188 C   0  0  0  0  0  0  0  0  0  0  0  0
   -9.2867   -1.6818   -0.9046 C   0  0  0  0  0  0  0  0  0  0  0  0
   -8.3335   -1.4023   -2.0563 C   0  0  0  0  0  0  0  0  0  0  0  0
   -9.7024   -2.9516   -0.6010 O   0  0  0  0  0  0  0  0  0  0  0  0
   -9.4309   -3.7037    0.5568 C   0  0  0  0  0  0  0  0  0  0  0  0
  -10.4672   -4.4109    1.1379 C   0  0  0  0  0  0  0  0  0  0  0  0
  -11.0758   -5.1953    1.7759 N   0  0  0  0  0  0  0  0  0  0  0  0
  -12.5245   -5.2370    1.8254 C   0  0  0  0  0  0  0  0  0  0  0  0
  -13.1689   -4.2428    0.9008 C   0  0  0  0  0  0  0  0  0  0  0  0
  -13.3990   -2.9734    1.4940 O   0  0  0  0  0  0  0  0  0  0  0  0
  -12.2339   -2.2078    1.7054 C   0  0  0  0  0  0  0  0  0  0  0  0
  -11.8356   -1.4168    0.6877 C   0  0  0  0  0  0  0  0  0  0  0  0
  -10.6040   -0.6237    0.9326 C   0  0  2  0  0  0  0  0  0  0  0  0
  -11.0053    0.7862    1.2670 C   0  0  0  0  0  0  0  0  0  0  0  0
  -11.6749    1.4686    0.1837 N   0  0  0  0  0  0  0  0  0  0  0  0
  -12.0215    2.7352    0.5342 O   0  0  0  0  0  0  0  0  0  0  0  0
  1  2  1  0
  2  3  1  0
  3  4  2  3
  4  5  1  0
  5  6  2  0
  6  7  1  0
  7  8  1  0
  8  9  1  0
  9 10  1  0
 10 11  2  3
 11 12  1  0
 12 13  2  3
 13 14  1  0
 13 15  1  0
 15 16  2  0
  9 17  2  0
  7 18  1  6
  7 19  1  0
 19 20  1  0
 20 21  1  0
 21 22  1  0
 22 23  2  3
 23 24  1  0
 24 25  1  0
 25 26  1  0
 26 27  2  3
 27 28  1  0
 27 29  1  0
 29 30  2  3
 30 31  1  0
 31 32  2  3
 32 33  1  0
 33 34  1  0
 33 35  2  3
 35 36  1  0
 37 36  1  6
 37 38  1  0
 38 39  1  0
 37 40  1  0
 40 41  1  0
 41 42  1  0
 42 43  1  0
 43 44  1  0
 44 45  2  3
 45 46  1  0
 46 47  1  0
 47 48  1  0
 48 49  1  0
 49 50  1  0
 50 51  1  0
 51 52  1  0
 52 53  1  0
 53 54  2  3
 54 55  1  0
 54 56  1  0
 56 57  1  0
 57 58  1  0
 58 59  2  3
 59 60  1  0
 60 61  1  0
 61 62  1  0
 62 63  1  0
 63 64  2  3
 64 65  1  0
 65 66  1  6
 66 67  1  0
 67 68  1  0
 17  5  1  0
 16 14  1  0
 39 51  2  3
 65 53  1  0
M  END
>  <fragInfo>  (1) 
37 38 39 40 41 42 43 44 45 46 47 48 49 50 51
1 2
3 4
5 6 7 8 9 17 18
10 11
12 13 14 15 16
19
20
21
22 23
24
25
26 27 28
29 30
31 32
33 34 35
36
52
53 54 55 56 57 58 59 60 61 62 63 64 65
66
67 68


>  <torsionInfo>  (1) 
36 37 16 0
51 52 0 17
2 3 1 2
4 5 2 3
7 19 3 6
9 10 3 4
11 12 4 5
19 20 6 7
20 21 7 8
21 22 8 9
23 24 9 10
24 25 10 11
25 26 11 12
27 29 12 13
30 31 13 14
32 33 14 15
35 36 15 16
52 53 17 18
65 66 18 19
66 67 19 20


>  <atomInfo>  (1) 
1  0.07660253C 
2  -0.5042867OA
3  0.08455191C 
4  -0.0020664C 
5  0.06296261C 
6  -0.0499696C 
7  0.01674456C 
8  0.00079634C 
9  0.04197635C 
10 -0.0404393C 
11 -0.0567515C 
12 -0.0191612C 
13 0.12910000C 
14 -0.4647501OA
15 0.01594400C 
16 0.09472336C 
17 -0.2536400NA
18 -0.0534466C 
19 0.05627830C 
20 -0.3764940OA
21 0.06473828C 
22 -0.0629900C 
23 -0.0859549C 
24 -0.0314931C 
25 -0.0310249C 
26 -0.0812899C 
27 -0.0551156C 
28 -0.0400909C 
29 -0.0596436C 
30 -0.0620044C 
31 -0.0618831C 
32 -0.0562694C 
33 -0.0163561C 
34 -0.0367310C 
35 0.09066761C 
36 -0.4598718OA
37 0.26220278C 
38 -0.4566281OA
39 0.12616619C 
40 0.12061726C 
41 -0.3733533OA
42 0.05039035C 
43 -0.0114141C 
44 -0.0861650C 
45 -0.0861651C 
46 -0.0114207C 
47 0.05002070C 
48 -0.3806609OA
49 0.05375941C 
50 0.03227567C 
51 0.14057732C 
52 -0.4585968OA
53 0.14929009C 
54 0.13226952C 
55 -0.0032573C 
56 -0.4890509OA
57 0.12261471C 
58 0.03626799C 
59 -0.2904017NA
60 0.07279705C 
61 0.10676401C 
62 -0.4995751OA
63 0.07974464C 
64 -0.0376670C 
65 0.05654444C 
66 0.03437832C 
67 -0.2045572NA
68 -0.3167815OA


$$$$
