
     RDKit          3D

 38 39  0  0  0  0  0  0  0  0999 V2000
   -2.0950   -3.1368   -0.0927 C   0  0  0  0  0  0  0  0  0  0  0  0
   -1.1528   -3.9303   -0.9884 C   0  0  2  0  0  0  0  0  0  0  0  0
   -1.2417   -5.4101   -0.6600 C   0  0  0  0  0  0  0  0  0  0  0  0
    0.2851   -3.4887   -0.7720 C   0  0  0  0  0  0  0  0  0  0  0  0
    0.9762   -4.4393    0.1954 C   0  0  0  0  0  0  0  0  0  0  0  0
    2.3483   -4.7332   -0.3696 C   0  0  0  0  0  0  0  0  0  0  0  0
    3.2627   -3.5971    0.0111 C   0  0  1  0  0  0  0  0  0  0  0  0
    3.2929   -3.4385    1.5189 C   0  0  0  0  0  0  0  0  0  0  0  0
    4.6796   -3.9346   -0.4189 C   0  0  0  0  0  0  0  0  0  0  0  0
    5.6120   -2.9801    0.2897 C   0  0  0  0  0  0  0  0  0  0  0  0
    5.3764   -1.5489   -0.1632 C   0  0  0  0  0  0  0  0  0  0  0  0
    6.6681   -0.8686   -0.5581 C   0  0  0  0  0  3  0  0  0  0  0  0
    6.6843    0.5075    0.0738 C   0  0  0  0  0  3  0  0  0  0  0  0
    5.4812    1.2893   -0.4258 C   0  0  0  0  0  2  0  0  0  0  0  0
    5.6212    2.7316    0.0059 C   0  0  0  0  0  3  0  0  0  0  0  0
    4.3104    3.2147    0.5998 C   0  0  0  0  0  3  0  0  0  0  0  0
    3.9917    4.5959    0.0751 C   0  0  0  0  0  0  0  0  0  0  0  0
    2.5157    4.8930    0.1353 C   0  0  0  0  0  0  0  0  0  0  0  0
    1.8997    4.5603   -1.2158 C   0  0  0  0  0  0  0  0  0  0  0  0
    0.3930    4.7023   -1.0737 C   0  0  0  0  0  0  0  0  0  0  0  0
   -0.1023    3.4177   -0.8375 O   0  0  0  0  0  0  0  0  0  0  0  0
   -0.1131    3.0948    0.5092 C   0  0  0  0  0  0  0  0  0  0  0  0
   -1.3035    2.2195    0.8060 C   0  0  0  0  0  0  0  0  0  0  0  0
   -2.3139    2.3906   -0.2892 C   0  0  2  0  0  0  0  0  0  0  0  0
   -2.9400    3.6440   -0.2406 O   0  0  0  0  0  0  0  0  0  0  0  0
   -2.9546    1.1196   -0.9197 S   0  0  2  0  0  0  0  0  0  0  0  0
   -4.1563    0.9157   -2.1292 C   0  0  0  0  0  0  0  0  0  0  0  0
   -5.5100    0.8012   -1.4572 C   0  0  1  0  0  0  0  0  0  0  0  0
   -5.7415   -0.5567   -1.2461 O   0  0  0  0  0  0  0  0  0  0  0  0
   -5.4232    1.5747   -0.1557 C   0  0  0  0  0  3  0  0  0  0  0  0
   -6.2762    1.0690    0.8168 O   0  0  0  0  0  0  0  0  0  0  0  0
   -5.5035    0.5480    1.8458 C   0  0  0  0  0  0  0  0  0  0  0  0
   -4.7255   -0.5107    1.3731 O   0  0  0  0  0  0  0  0  0  0  0  0
   -3.3765   -0.2017    1.3725 C   0  0  1  0  0  0  0  0  0  0  0  0
   -2.7221   -1.1795    2.1361 O   0  0  0  0  0  0  0  0  0  0  0  0
   -2.8645   -0.3022   -0.0380 C   0  0  2  0  0  0  0  0  0  0  0  0
   -1.4778   -0.9056   -0.1024 C   0  0  0  0  0  0  0  0  0  0  0  0
   -1.4045   -2.1268    0.5721 O   0  0  0  0  0  0  0  0  0  0  0  0
  1  2  1  0
  2  3  1  1
  2  4  1  0
  4  5  1  0
  5  6  1  0
  6  7  1  0
  7  8  1  1
  7  9  1  0
  9 10  1  0
 10 11  1  0
 11 12  1  0
 12 13  1  0
 13 14  1  0
 14 15  1  0
 15 16  1  0
 16 17  1  0
 17 18  1  0
 18 19  1  0
 19 20  1  0
 20 21  1  0
 21 22  1  0
 22 23  1  0
 23 24  1  0
 24 25  1  1
 24 26  1  0
 26 27  1  1
 27 28  1  0
 28 29  1  1
 28 30  1  0
 30 31  1  0
 31 32  1  0
 32 33  1  0
 33 34  1  0
 34 35  1  1
 34 36  1  0
 36 37  1  1
 37 38  1  0
 38  1  1  0
 36 26  1  0
M  RAD  6  12   2  13   2  14   3  15   2  16   2  30   2
M  END
>  <fragInfo>  (1) 
1 2 3 4 5 6 7 8 9 10 11 12 13 14 15 16 17 18 19 20 21 22 23 24 25 26 27 28 29 30 31 32 33 34 35 36 37 38


>  <torsionInfo>  (1) 


>  <atomInfo>  (1) 
1  0.04917146C 
2  -0.0206830C 
3  -0.0603078C 
4  -0.0485046C 
5  -0.0527139C 
6  -0.0506997C 
7  -0.0442797C 
8  -0.0625097C 
9  -0.0507007C 
10 -0.0527673C 
11 -0.0498651C 
12 -0.0345651C 
13 -0.0274960C 
14 -0.0093640C 
15 -0.0274960C 
16 -0.0345638C 
17 -0.0497908C 
18 -0.0508292C 
19 -0.0295930C 
20 0.04655660C 
21 -0.3813180OA
22 0.04979399C 
23 0.00449685C 
24 0.08465882C 
25 -0.3840750OA
26 -0.2155987S 
27 0.00626714C 
28 0.09036012C 
29 -0.3895137OA
30 0.11572887C 
31 -0.3465172OA
32 0.15007480C 
33 -0.3256529OA
34 0.16945402C 
35 -0.3668467OA
36 0.06339865C 
37 0.06180048C 
38 -0.3798880OA


$$$$
