
     RDKit          3D

 17 16  0  0  0  0  0  0  0  0999 V2000
   -3.2040    0.2639   -2.3910 C   0  0  0  0  0  0  0  0  0  0  0  0
   -3.9741    0.3901   -1.1124 C   0  0  0  0  0  0  0  0  0  0  0  0
   -3.5159    1.5036   -0.2288 C   0  0  0  0  0  0  0  0  0  0  0  0
   -4.1871   -0.9068   -0.3968 C   0  0  0  0  0  0  0  0  0  0  0  0
   -2.8875   -1.5682   -0.0231 C   0  0  0  0  0  0  0  0  0  0  0  0
   -2.1124   -0.6369    0.8876 C   0  0  0  0  0  0  0  0  0  0  0  0
   -0.7948   -1.2307    1.3062 C   0  0  1  0  0  0  0  0  0  0  0  0
   -0.9983   -2.5293    2.0535 C   0  0  0  0  0  0  0  0  0  0  0  0
    0.0839   -1.5013    0.1251 C   0  0  0  0  0  3  0  0  0  0  0  0
    0.4034   -0.2588   -0.6669 C   0  0  0  0  0  0  0  0  0  0  0  0
    1.1194    0.7831    0.1496 C   0  0  0  0  0  0  0  0  0  0  0  0
    2.4346    0.2839    0.6967 C   0  0  2  0  0  0  0  0  0  0  0  0
    3.0458    1.4327    1.4963 C   0  0  0  0  0  0  0  0  0  0  0  0
    3.3761   -0.1353   -0.4083 C   0  0  0  0  0  0  0  0  0  0  0  0
    3.6295    1.0421   -1.2748 C   0  0  0  0  0  0  0  0  0  0  0  0
    4.4970    0.9039   -2.4014 N   0  0  0  0  0  1  0  0  0  0  0  0
    3.0846    2.1641   -1.0241 N   0  0  0  0  0  2  0  0  0  0  0  0
  1  2  1  0
  2  3  1  0
  2  4  1  0
  4  5  1  0
  5  6  1  0
  6  7  1  0
  7  8  1  6
  7  9  1  0
  9 10  1  0
 10 11  1  0
 11 12  1  0
 12 13  1  6
 12 14  1  0
 14 15  1  0
 15 16  1  0
 15 17  2  0
M  CHG  2  16   1  17  -1
M  RAD  2   9   2  16   2
M  END
>  <fragInfo>  (1) 
1 2 3
4
5
6
7 8
9
10
11
12 13
14
15 16 17


>  <torsionInfo>  (1) 
2 4 0 1
4 5 1 2
5 6 2 3
6 7 3 4
7 9 4 5
9 10 5 6
10 11 6 7
11 12 7 8
12 14 8 9
14 15 9 10


>  <atomInfo>  (1) 
1  -0.0627736C 
2  -0.0471324C 
3  -0.0627736C 
4  -0.0509643C 
5  -0.0527983C 
6  -0.0504266C 
7  -0.0411603C 
8  -0.0622342C 
9  -0.0357402C 
10 -0.0496508C 
11 -0.0499653C 
12 -0.0363028C 
13 -0.0620469C 
14 0.02134876C 
15 0.20053014C 
16 0.43996899N 
17 -0.7400009NA


$$$$
