
     RDKit          3D

  9  9  0  0  0  0  0  0  0  0999 V2000
    1.8441   -0.3446   -0.2600 C   0  0  0  0  0  0  0  0  0  0  0  0
    0.8845   -1.1947    0.3154 O   0  0  0  0  0  0  0  0  0  0  0  0
   -0.0555   -1.4519   -0.6703 C   0  0  0  0  0  3  0  0  0  0  0  0
   -1.3444   -1.1373   -0.3106 O   0  0  0  0  0  0  0  0  0  0  0  0
   -1.4978    0.0954    0.2713 C   0  0  2  0  0  0  0  0  0  0  0  0
   -1.8694    1.1873   -0.7056 C   0  0  0  0  0  0  0  0  0  0  0  0
   -0.3656    0.5125    1.1565 C   0  0  0  0  0  3  0  0  0  0  0  0
    0.5582    1.4214    0.3558 C   0  0  0  0  0  3  0  0  0  0  0  0
    1.8460    0.9119    0.3594 O   0  0  0  0  0  0  0  0  0  0  0  0
  1  2  1  0
  2  3  1  0
  3  4  1  0
  4  5  1  0
  5  6  1  6
  5  7  1  0
  7  8  1  0
  8  9  1  0
  9  1  1  0
M  RAD  3   3   2   7   2   8   2
M  END
>  <fragInfo>  (1) 
1 2 3 4 5 6 7 8 9


>  <torsionInfo>  (1) 


>  <atomInfo>  (1) 
1  0.15017148C 
2  -0.3212305OA
3  0.21152995C 
4  -0.3444452OA
5  0.06391172C 
6  -0.0381602C 
7  0.02178836C 
8  0.09272274C 
9  -0.3489442OA


$$$$
