
     RDKit          3D

 88 93  0  0  0  0  0  0  0  0999 V2000
   17.6466    2.5727    0.3219 C   0  0  0  0  0  0  0  0  0  0  0  0
   16.4655    1.9327    0.7407 O   0  0  0  0  0  0  0  0  0  0  0  0
   16.3596    0.5659    0.8930 C   0  0  0  0  0  0  0  0  0  0  0  0
   17.4474   -0.2328    0.6295 C   0  0  0  0  0  0  0  0  0  0  0  0
   17.3703   -1.5897    0.7729 C   0  0  0  0  0  0  0  0  0  0  0  0
   16.1873   -2.1492    1.1852 C   0  0  0  0  0  0  0  0  0  0  0  0
   15.0759   -1.3908    1.4594 C   0  0  0  0  0  0  0  0  0  0  0  0
   15.1813   -0.0016    1.3044 C   0  0  0  0  0  0  0  0  0  0  0  0
   14.0269    0.8771    1.5826 C   0  0  0  0  0  0  0  0  0  0  0  0
   13.4431    1.3163    0.2548 C   0  0  0  0  0  0  0  0  0  0  0  0
   13.0140    0.1030   -0.5066 C   0  0  0  0  0  0  0  0  0  0  0  0
   12.4157    0.4040   -1.8322 C   0  0  1  0  0  0  0  0  0  0  0  0
   11.9963   -0.7981   -2.5769 C   0  0  0  0  0  0  0  0  0  0  0  0
   13.1454   -1.7388   -2.8537 C   0  0  0  0  0  0  0  0  0  0  0  0
   11.5705    1.6074   -1.9207 C   0  0  0  0  0  0  0  0  0  0  0  0
   10.3778    1.6607   -1.0317 C   0  0  0  0  0  0  0  0  0  0  0  0
    9.3940    0.5840   -1.2169 C   0  0  0  0  0  0  0  0  0  0  0  0
    9.7752   -0.7573   -0.9667 N   0  0  0  0  0  0  0  0  0  0  0  0
   10.0622   -1.1284    0.3605 N   0  0  0  0  0  0  0  0  0  0  0  0
    8.1440    0.7861   -1.5936 C   0  0  0  0  0  0  0  0  0  0  0  0
    7.5249    2.0789   -1.8875 C   0  0  0  0  0  0  0  0  0  0  0  0
    7.0037    2.1697   -3.3059 C   0  0  1  0  0  0  0  0  0  0  0  0
    8.1223    1.9781   -4.3102 C   0  0  0  0  0  0  0  0  0  0  0  0
    5.8746    1.2199   -3.5603 C   0  0  0  0  0  0  0  0  0  0  0  0
    4.7428    1.5511   -2.6179 C   0  0  0  0  0  0  0  0  0  0  0  0
    5.1100    1.4469   -1.1847 C   0  0  0  0  0  0  0  0  0  0  0  0
    4.4614    0.5976   -0.4214 C   0  0  0  0  0  0  0  0  0  0  0  0
    4.8302    0.4956    1.0100 C   0  0  0  0  0  0  0  0  0  0  0  0
    6.3136    0.6351    1.2579 C   0  0  0  0  0  0  0  0  0  0  0  0
    7.0006   -0.6350    1.5099 C   0  0  0  0  0  0  0  0  0  0  0  0
    6.8639   -1.3218    2.6568 C   0  0  0  0  0  0  0  0  0  0  0  0
    7.5543   -2.5755    2.8798 C   0  0  0  0  0  0  0  0  0  0  0  0
    7.2892   -3.7122    2.2616 C   0  0  0  0  0  0  0  0  0  0  0  0
    6.2955   -3.8804    1.2916 N   0  0  0  0  0  0  0  0  0  0  0  0
    6.4586   -3.6647    0.0312 C   0  0  0  0  0  0  0  0  0  0  0  0
    5.4513   -3.8375   -0.9331 N   0  0  0  0  0  0  0  0  0  0  0  0
    4.0459   -3.8109   -0.6102 C   0  0  0  0  0  0  0  0  0  0  0  0
    3.3024   -2.7324   -0.8929 C   0  0  0  0  0  0  0  0  0  0  0  0
    3.8660   -1.5409   -1.5352 C   0  0  0  0  0  0  0  0  0  0  0  0
    3.3907   -0.2374   -0.9900 C   0  0  1  0  0  0  0  0  0  0  0  0
    1.9019   -0.3331   -0.0029 S   0  0  0  0  0  0  0  0  0  0  0  0
    1.1190    1.3020    0.0364 C   0  0  0  0  0  0  0  0  0  0  0  0
    2.0226    2.2204    0.7713 C   0  0  0  0  0  0  0  0  0  0  0  0
    1.7124    2.5817    2.0039 C   0  0  0  0  0  3  0  0  0  0  0  0
    0.5173    2.1287    2.7027 C   0  0  0  0  0  0  0  0  0  0  0  0
   -0.3042    1.3060    2.0609 C   0  0  0  0  0  0  0  0  0  0  0  0
   -1.5203    0.7930    2.6594 C   0  0  0  0  0  0  0  0  0  0  0  0
   -2.2889   -0.0172    1.9694 C   0  0  0  0  0  0  0  0  0  0  0  0
   -1.9149   -0.3992    0.5969 C   0  0  0  0  0  0  0  0  0  0  0  0
   -2.9505   -0.0173   -0.4162 C   0  0  0  0  0  0  0  0  0  0  0  0
   -3.2428    1.4149   -0.5001 C   0  0  0  0  0  0  0  0  0  0  0  0
   -4.3970    1.9647   -0.2744 C   0  0  0  0  0  0  0  0  0  0  0  0
   -4.6286    3.4263   -0.3769 C   0  0  0  0  0  0  0  0  0  0  0  0
   -5.3726    3.9625    0.6152 C   0  0  0  0  0  0  0  0  0  0  0  0
   -5.8866    3.0971    1.6959 C   0  0  0  0  0  0  0  0  0  0  0  0
   -6.3289    1.7957    1.2132 C   0  0  2  0  0  0  0  0  0  0  0  0
   -5.5829    1.1788    0.1096 C   0  0  2  0  0  0  0  0  0  0  0  0
   -5.2978   -0.2609    0.3942 C   0  0  0  0  0  0  0  0  0  0  0  0
   -5.5991   -1.1621   -0.7875 C   0  0  0  0  0  0  0  0  0  0  0  0
   -7.0456   -1.0987   -1.2103 C   0  0  0  0  0  0  0  0  0  0  0  0
   -7.8990   -1.9828   -0.3697 C   0  0  0  0  0  0  0  0  0  0  0  0
   -9.1229   -2.2751   -0.7307 C   0  0  0  0  0  0  0  0  0  0  0  0
   -9.7832   -1.8126   -1.9221 C   0  0  0  0  0  0  0  0  0  0  0  0
   -9.9238   -0.5587   -2.2870 C   0  0  0  0  0  0  0  0  0  0  0  0
   -9.4009    0.5794   -1.4879 C   0  0  0  0  0  0  0  0  0  0  0  0
  -10.3665    0.8258   -0.3514 C   0  0  1  0  0  0  0  0  0  0  0  0
  -10.0311    2.1183    0.3608 C   0  0  0  0  0  0  0  0  0  0  0  0
   -8.5737    2.3021    0.4481 C   0  0  0  0  0  0  0  0  0  0  0  0
   -7.7781    1.5493    1.1771 C   0  0  0  0  0  0  0  0  0  0  0  0
   -8.2679    0.4673    1.9632 N   0  0  0  0  0  0  0  0  0  0  0  0
   -9.5468    0.4408    2.6247 C   0  0  0  0  0  3  0  0  0  0  0  0
  -10.0839   -0.8610    2.5185 O   0  0  0  0  0  0  0  0  0  0  0  0
  -11.3026   -0.8056    1.8051 C   0  0  0  0  0  0  0  0  0  0  0  0
  -11.9918    0.4273    2.2175 C   0  0  0  0  0  0  0  0  0  0  0  0
  -12.6754    1.2247    1.4098 C   0  0  0  0  0  0  0  0  0  0  0  0
  -12.8583    1.0182   -0.0155 C   0  0  0  0  0  0  0  0  0  0  0  0
  -11.7634    0.8258   -0.8538 C   0  0  0  0  0  0  0  0  0  0  0  0
  -11.9695    0.6335   -2.1995 C   0  0  0  0  0  0  0  0  0  0  0  0
  -13.2053    0.6203   -2.7726 C   0  0  0  0  0  0  0  0  0  0  0  0
  -14.2961    0.8112   -1.9454 C   0  0  0  0  0  0  0  0  0  0  0  0
  -14.1169    1.0087   -0.5745 C   0  0  0  0  0  0  0  0  0  0  0  0
  -15.6233    1.2515    0.3671 S   0  0  0  0  0  0  0  0  0  0  0  0
  -16.2093   -0.3563    0.9347 C   0  0  0  0  0  3  0  0  0  0  0  0
  -15.3434   -1.4713    0.5157 C   0  0  0  0  0  0  0  0  0  0  0  0
  -15.6723   -2.3895   -0.3807 C   0  0  0  0  0  0  0  0  0  0  0  0
  -14.4838   -3.6769   -0.7660 S   0  0  0  0  0  0  0  0  0  0  0  0
  -14.0790   -4.8210    0.3545 C   0  0  0  0  0  0  0  0  0  0  0  0
  -13.1449   -5.8242    0.0379 N   0  0  0  0  0  0  0  0  0  0  0  0
  1  2  1  0
  2  3  1  0
  3  4  2  0
  4  5  1  0
  5  6  2  0
  6  7  1  0
  7  8  2  0
  8  9  1  0
  9 10  1  0
 10 11  1  0
 12 11  1  1
 12 13  1  0
 13 14  1  0
 12 15  1  0
 15 16  1  0
 16 17  1  0
 17 18  1  0
 18 19  1  0
 17 20  2  3
 20 21  1  0
 21 22  1  0
 22 23  1  6
 22 24  1  0
 24 25  1  0
 25 26  1  0
 26 27  2  3
 27 28  1  0
 28 29  1  0
 29 30  1  0
 30 31  2  3
 31 32  1  0
 32 33  2  3
 33 34  1  0
 34 35  2  3
 35 36  1  0
 36 37  1  0
 37 38  2  3
 38 39  1  0
 39 40  1  0
 40 41  1  1
 41 42  1  0
 42 43  1  0
 43 44  2  3
 44 45  1  0
 45 46  2  3
 46 47  1  0
 47 48  2  3
 48 49  1  0
 49 50  1  0
 50 51  1  0
 51 52  2  3
 52 53  1  0
 53 54  2  0
 54 55  1  0
 56 55  1  6
 56 57  1  0
 57 58  1  1
 58 59  1  0
 59 60  1  0
 60 61  1  0
 61 62  2  3
 62 63  1  0
 63 64  2  3
 64 65  1  0
 66 65  1  6
 66 67  1  0
 67 68  1  0
 68 69  2  3
 69 70  1  0
 70 71  1  0
 71 72  1  0
 72 73  1  0
 73 74  1  0
 74 75  2  3
 75 76  1  0
 76 77  2  0
 77 78  1  0
 78 79  2  0
 79 80  1  0
 80 81  2  0
 81 82  1  0
 82 83  1  0
 83 84  1  0
 84 85  2  3
 85 86  1  0
 86 87  2  3
 87 88  1  0
  8  3  1  0
 40 27  1  0
 57 52  1  0
 69 56  1  0
 77 66  1  0
 81 76  1  0
M  RAD  3  44   2  71   2  83   2
M  END
>  <fragInfo>  (1) 
51 52 53 54 55 56 57 58 59 60 61 62 63 64 65 66 67 68 69 70 71 72 73 74 75 76 77 78 79 80 81
1 2
3 4 5 6 7 8
9
10
11
12
13 14
15
16
17 20
18 19
21
22 23
24
25
26 27 28 29 30 31 32 33 34 35 36 37 38 39 40
41
42
43 44
45 46
47 48
49
50
82
83
84 85
86 87 88


>  <torsionInfo>  (1) 
50 51 23 0
81 82 0 24
2 3 1 2
8 9 2 3
9 10 3 4
10 11 4 5
11 12 5 6
12 13 6 7
12 15 6 8
15 16 8 9
16 17 9 10
17 18 10 11
20 21 10 12
21 22 12 13
22 24 13 14
24 25 14 15
25 26 15 16
40 41 16 17
41 42 17 18
42 43 18 19
44 45 19 20
46 47 20 21
48 49 21 22
49 50 22 23
82 83 24 25
83 84 25 26
85 86 26 27


>  <atomInfo>  (1) 
1  0.07752207C 
2  -0.4964781OA
3  0.12154418A 
4  -0.0196953A 
5  -0.0585650A 
6  -0.0617247A 
7  -0.0553512A 
8  -0.0059119A 
9  -0.0242097C 
10 -0.0488322C 
11 -0.0501266C 
12 -0.0413081C 
13 -0.0532998C 
14 -0.0651179C 
15 -0.0449343C 
16 -0.0116668C 
17 0.02192187C 
18 -0.3285791N 
19 -0.2507833NA
20 -0.0638528C 
21 -0.0304181C 
22 -0.0404421C 
23 -0.0622011C 
24 -0.0469238C 
25 -0.0344989C 
26 -0.0841846C 
27 -0.0605631C 
28 -0.0274285C 
29 -0.0309769C 
30 -0.0841634C 
31 -0.0647337C 
32 -0.0441240C 
33 0.02850942C 
34 -0.2469753NA
35 0.09178369C 
36 -0.3530324N 
37 -0.0020859C 
38 -0.0669817C 
39 -0.0175293C 
40 0.02943085C 
41 -0.1496184SA
42 0.01281358C 
43 -0.0667133C 
44 -0.0218626C 
45 -0.0546959C 
46 -0.0619789C 
47 -0.0662434C 
48 -0.0842285C 
49 -0.0312647C 
50 -0.0309938C 
51 -0.0807144C 
52 -0.0485320C 
53 -0.0630406C 
54 -0.0835776C 
55 -0.0258314C 
56 0.00871240C 
57 -0.0079224C 
58 -0.0454308C 
59 -0.0492087C 
60 -0.0347389C 
61 -0.0845475C 
62 -0.0665925C 
63 -0.0665707C 
64 -0.0839290C 
65 -0.0275161C 
66 -0.0085626C 
67 -0.0258131C 
68 -0.0644873C 
69 0.01282351C 
70 -0.3598352N 
71 0.17265145C 
72 -0.3496908OA
73 0.06787623C 
74 -0.0582444C 
75 -0.0552956C 
76 -0.0087293A 
77 -0.0359252A 
78 -0.0580616A 
79 -0.0608259A 
80 -0.0479480A 
81 0.01537256A 
82 -0.1163722SA
83 0.04424151C 
84 -0.0611137C 
85 -0.0270668C 
86 -0.2203239S 
87 0.03245078C 
88 -0.3975674N 


$$$$
