
     RDKit          3D

 26 27  0  0  0  0  0  0  0  0999 V2000
    5.5846   -0.8835    0.4292 C   0  0  0  0  0  0  0  0  0  0  0  0
    6.1225    0.4135    0.3047 O   0  0  0  0  0  0  0  0  0  0  0  0
    4.9878    1.2835    0.6374 C   0  0  0  0  0  3  0  0  0  0  0  0
    3.9510    0.7193   -0.1086 O   0  0  0  0  0  0  0  0  0  0  0  0
    3.1044   -0.0953    0.5770 C   0  0  2  0  0  0  0  0  0  0  0  0
    2.3515   -0.9941   -0.4140 C   0  0  0  0  0  0  0  0  0  0  0  0
    2.2115    0.4214    1.6061 C   0  0  0  0  0  3  0  0  0  0  0  0
    0.8280    0.8343    1.2969 C   0  0  1  0  0  0  0  0  0  0  0  0
    0.8085    1.9731    0.3632 N   0  0  0  0  0  0  0  0  0  0  0  0
    1.3622    1.6422   -0.9260 C   0  0  0  0  0  2  0  0  0  0  0  0
   -0.0855   -0.2877    0.7842 C   0  0  1  0  0  0  0  0  0  0  0  0
   -1.4951    0.1668    0.8199 C   0  0  2  0  0  0  0  0  0  0  0  0
   -1.7854    1.0775    1.8327 O   0  0  0  0  0  0  0  0  0  0  0  0
   -2.5225   -0.8986    0.7006 C   0  0  2  0  0  0  0  0  0  0  0  0
   -2.8294   -1.6846    1.9118 C   0  0  0  0  0  0  0  0  0  0  0  0
   -1.8537   -2.4494    2.4601 O   0  0  0  0  0  0  0  0  0  0  0  0
   -2.2744   -1.7769   -0.5123 C   0  0  2  0  0  0  0  0  0  0  0  0
   -2.4039   -3.1138   -0.0937 O   0  0  0  0  0  0  0  0  0  0  0  0
   -0.9299   -1.5721   -1.1114 C   0  0  2  0  0  0  0  0  0  0  0  0
   -0.1390   -2.6493   -0.7258 O   0  0  0  0  0  0  0  0  0  0  0  0
   -0.2420   -0.2781   -0.7595 C   0  0  1  0  0  0  0  0  0  0  0  0
   -1.3368    0.8304   -0.5286 C   0  0  1  0  0  0  0  0  0  0  0  0
   -2.5233    0.4019   -1.2605 O   0  0  0  0  0  0  0  0  0  0  0  0
   -3.4962    1.1006   -0.7522 N   0  0  0  0  0  0  0  0  0  0  0  0
   -3.8836    2.3560   -1.1424 C   0  0  0  0  0  3  0  0  0  0  0  0
   -3.5113    3.4631   -0.1533 C   0  0  0  0  0  2  0  0  0  0  0  0
  1  2  1  0
  2  3  1  0
  3  4  1  0
  4  5  1  0
  5  6  1  6
  5  7  1  0
  8  7  1  6
  8  9  1  0
  9 10  1  0
 11  8  1  6
 11 12  1  0
 12 13  1  1
 12 14  1  0
 14 15  1  1
 15 16  1  0
 14 17  1  0
 17 18  1  1
 17 19  1  0
 19 20  1  1
 21 19  1  1
 21 22  1  0
 22 23  1  6
 23 24  1  0
 24 25  1  0
 25 26  1  0
 21 11  1  0
 22 12  1  0
M  RAD  5   3   2   7   2  10   3  25   2  26   3
M  END
>  <fragInfo>  (1) 
11 12 13 14 17 18 19 20 21 22
1 2
3
4
5 6
7
8
9 10
15 16
23
24
25 26


>  <torsionInfo>  (1) 
8 11 6 0
14 15 0 8
22 23 0 9
2 3 1 2
3 4 2 3
4 5 3 4
5 7 4 5
7 8 5 6
8 9 6 7
23 24 9 10
24 25 10 11


>  <atomInfo>  (1) 
1  0.03885651C 
2  -0.3513313OA
3  0.20894130C 
4  -0.3445556OA
5  0.06278729C 
6  -0.0382022C 
7  0.00747824C 
8  0.01895945C 
9  -0.3072894NA
10 0.04095947C 
11 0.01458215C 
12 0.10547687C 
13 -0.3862230OA
14 0.04238264C 
15 0.05133745C 
16 -0.3958669OA
17 0.08812492C 
18 -0.3899209OA
19 0.08624988C 
20 -0.3900080OA
21 0.02574019C 
22 0.11422018C 
23 -0.2946950OA
24 -0.1970566NA
25 0.05358094C 
26 -0.0124416C 


$$$$
