
     RDKit          3D

 45 47  0  0  0  0  0  0  0  0999 V2000
   -7.9526    3.1049    2.4776 C   0  0  0  0  0  0  0  0  0  0  0  0
   -9.0510    2.5463    1.6052 C   0  0  0  0  0  0  0  0  0  0  0  0
  -10.4139    2.6826    2.2668 C   0  0  0  0  0  0  0  0  0  0  0  0
   -9.0373    3.1968    0.2301 C   0  0  0  0  0  0  0  0  0  0  0  0
  -10.1367    2.6315   -0.6291 C   0  0  0  0  0  0  0  0  0  0  0  0
   -9.9575    1.1403   -0.8023 C   0  0  0  0  0  0  0  0  0  0  0  0
   -8.6548    0.8273   -1.4529 C   0  0  1  0  0  0  0  0  0  0  0  0
   -7.4755    1.2919   -0.7097 C   0  0  0  0  0  0  0  0  0  0  0  0
   -8.5447   -0.5488   -2.0171 C   0  0  0  0  0  3  0  0  0  0  0  0
   -7.1912   -0.7835   -2.5904 C   0  0  0  0  0  0  0  0  0  0  0  0
   -6.0661   -0.8115   -1.6136 C   0  0  0  0  0  0  0  0  0  0  0  0
   -6.1223   -1.8888   -0.5894 C   0  0  2  0  0  0  0  0  0  0  0  0
   -7.3300   -1.8776    0.2976 C   0  0  0  0  0  0  0  0  0  0  0  0
   -4.8737   -1.8108    0.2598 C   0  0  0  0  0  0  0  0  0  0  0  0
   -4.8179   -0.4843    0.9187 C   0  0  1  0  0  0  0  0  0  0  0  0
   -6.0035   -0.3378    1.7514 N   0  0  0  0  0  0  0  0  0  0  0  0
   -3.5774   -0.0769    1.5961 C   0  0  0  0  0  0  0  0  0  0  0  0
   -3.1393   -0.9530    2.7038 C   0  0  0  0  0  0  0  0  0  0  0  0
   -2.7924   -2.3079    2.2976 C   0  0  2  0  0  0  0  0  0  0  0  0
   -2.2002   -3.6512    3.7933 I   0  0  0  0  0  0  0  0  0  0  0  0
   -2.3063   -2.5465    0.9464 C   0  0  0  0  0  0  0  0  0  0  0  0
   -1.1001   -1.8351    0.5082 C   0  0  0  0  0  0  0  0  0  0  0  0
    0.0996   -2.0992    1.3261 C   0  0  2  0  0  0  0  0  0  0  0  0
   -0.0058   -1.7056    2.7541 C   0  0  0  0  0  0  0  0  0  0  0  0
    1.3459   -1.5283    0.7578 C   0  0  0  0  0  0  0  0  0  0  0  0
    2.1251   -0.3151    0.4550 C   0  0  0  0  0  0  0  0  0  0  0  0
    2.5576   -1.7083    0.1603 C   0  0  0  0  0  0  0  0  0  0  0  0
    3.6282   -2.5585   -0.4103 C   0  0  0  0  0  0  0  0  0  0  0  0
    4.9473   -2.4253    0.2645 C   0  0  2  0  0  0  0  0  0  0  0  0
    4.9345   -2.9246    2.3118 I   0  0  0  0  0  0  0  0  0  0  0  0
    5.7119   -1.1858   -0.0597 C   0  0  2  0  0  0  0  0  0  0  0  0
    7.0198   -1.2387    0.7232 C   0  0  0  0  0  0  0  0  0  0  0  0
    4.9886    0.0502    0.3677 C   0  0  0  0  0  0  0  0  0  0  0  0
    5.8158    1.2516    0.0102 C   0  0  0  0  0  0  0  0  0  0  0  0
    6.0361    1.2789   -1.4874 C   0  0  0  0  0  3  0  0  0  0  0  0
    6.8714    2.5019   -1.8055 C   0  0  0  0  0  0  0  0  0  0  0  0
    7.1399    2.6074   -3.2710 C   0  0  0  0  0  0  0  0  0  0  0  0
    7.8645    1.4916   -3.8958 C   0  0  2  0  0  0  0  0  0  0  0  0
    6.9654   -0.4027   -3.7615 I   0  0  0  0  0  0  0  0  0  0  0  0
    9.3165    1.4297   -3.6148 C   0  0  0  0  0  3  0  0  0  0  0  0
    9.5916    1.3114   -2.1554 C   0  0  1  0  0  0  0  0  0  0  0  0
   11.0983    1.1846   -1.8705 C   0  0  0  0  0  0  0  0  0  0  0  0
   11.0607    2.3089   -0.8898 C   0  0  2  0  0  0  0  0  0  0  0  0
    9.9400    2.4964    0.0561 C   0  0  0  0  0  0  0  0  0  0  0  0
    9.6917    2.6718   -1.4554 C   0  0  2  0  0  0  0  0  0  0  0  0
  1  2  1  0
  2  3  1  0
  2  4  1  0
  4  5  1  0
  5  6  1  0
  6  7  1  0
  7  8  1  1
  7  9  1  0
  9 10  1  0
 10 11  1  0
 11 12  1  0
 12 13  1  1
 12 14  1  0
 14 15  1  0
 15 16  1  1
 15 17  1  0
 17 18  1  0
 18 19  1  0
 19 20  1  1
 19 21  1  0
 21 22  1  0
 22 23  1  0
 23 24  1  1
 23 25  1  0
 25 26  1  0
 26 27  1  0
 27 28  1  0
 28 29  1  0
 29 30  1  1
 29 31  1  0
 31 32  1  1
 31 33  1  0
 33 34  1  0
 34 35  1  0
 35 36  1  0
 36 37  1  0
 37 38  1  0
 38 39  1  1
 38 40  1  0
 41 40  1  6
 41 42  1  0
 43 42  1  6
 43 44  1  0
 43 45  1  0
 25 27  2  0
 45 41  1  0
 45 44  1  1
M  RAD  3   9   2  35   2  40   2
M  END
>  <fragInfo>  (1) 
41 42 43 44 45
1 2 3
4
5
6
7 8
9
10
11
12 13
14
15 16
17
18
19 20
21
22
23 24
25 26 27
28
29 30
31 32
33
34
35
36
37
38 39
40


>  <torsionInfo>  (1) 
40 41 28 0
2 4 1 2
4 5 2 3
5 6 3 4
6 7 4 5
7 9 5 6
9 10 6 7
10 11 7 8
11 12 8 9
12 14 9 10
14 15 10 11
15 17 11 12
17 18 12 13
18 19 13 14
19 21 14 15
21 22 15 16
22 23 16 17
23 25 17 18
27 28 18 19
28 29 19 20
29 31 20 21
31 33 21 22
33 34 22 23
34 35 23 24
35 36 24 25
36 37 25 26
37 38 26 27
38 40 27 28


>  <atomInfo>  (1) 
1  -0.0627736C 
2  -0.0471324C 
3  -0.0627736C 
4  -0.0509643C 
5  -0.0527983C 
6  -0.0504266C 
7  -0.0411603C 
8  -0.0622342C 
9  -0.0357404C 
10 -0.0496636C 
11 -0.0503693C 
12 -0.0427982C 
13 -0.0624517C 
14 -0.0353986C 
15 0.00416849C 
16 -0.3277007NA
17 -0.0369811C 
18 -0.0399274C 
19 0.01103840C 
20 -0.0826207I 
21 -0.0408392C 
22 -0.0459413C 
23 -0.0225283C 
24 -0.0587192C 
25 -0.0637584C 
26 -0.0099701C 
27 -0.0652965C 
28 -0.0192805C 
29 0.01725368C 
30 -0.0819823I 
31 -0.0321009C 
32 -0.0614953C 
33 -0.0494253C 
34 -0.0498915C 
35 -0.0385361C 
36 -0.0491741C 
37 -0.0408354C 
38 0.01438071C 
39 -0.0822964I 
40 -0.0223356C 
41 -0.0338798C 
42 -0.0467163C 
43 -0.0377300C 
44 -0.0467636C 
45 -0.0351236C 


$$$$
