
     RDKit          2D

 66 68  0  0  0  0  0  0  0  0999 V2000
    7.4512   -2.5299    0.0000 C   0  0  0  0  0  0  0  0  0  0  0  0
    6.2986   -1.5700    0.0000 C   0  0  0  0  0  0  0  0  0  0  0  0
    7.0558   -0.2751    0.0000 C   0  0  0  0  0  0  0  0  0  0  0  0
    4.8968   -1.0363    0.0000 C   0  0  0  0  0  3  0  0  0  0  0  0
    3.3976   -0.9867    0.0000 C   0  0  0  0  0  0  0  0  0  0  0  0
    1.9635   -1.4266    0.0000 C   0  0  0  0  0  0  0  0  0  0  0  0
    2.4271    0.0000    0.0000 C   0  0  0  0  0  3  0  0  0  0  0  0
    3.9271    0.0000    0.0000 C   0  0  0  0  0  0  0  0  0  0  0  0
    1.9635    1.4266    0.0000 C   0  0  0  0  0  0  0  0  0  0  0  0
    0.7500    2.3083    0.0000 C   0  0  0  0  0  0  0  0  0  0  0  0
   -0.7500    2.3083    0.0000 C   0  0  0  0  0  0  0  0  0  0  0  0
   -1.9635    1.4266    0.0000 C   0  0  0  0  0  3  0  0  0  0  0  0
   -2.4271    0.0000    0.0000 C   0  0  0  0  0  2  0  0  0  0  0  0
   -1.9635   -1.4266    0.0000 C   0  0  0  0  0  0  0  0  0  0  0  0
   -0.7500   -2.3083    0.0000 C   0  0  0  0  0  0  0  0  0  0  0  0
    0.7500   -2.3083    0.0000 C   0  0  0  0  0  0  0  0  0  0  0  0
   -0.1115   -3.5362    0.0000 C   0  0  0  0  0  0  0  0  0  0  0  0
   -0.5276   -4.9773    0.0000 C   0  0  0  0  0  3  0  0  0  0  0  0
   -0.4532   -6.4755    0.0000 C   0  0  0  0  0  3  0  0  0  0  0  0
    0.1036   -7.8683    0.0000 C   0  0  0  0  0  0  0  0  0  0  0  0
   -1.1786   -8.6468    0.0000 C   0  0  0  0  0  0  0  0  0  0  0  0
    1.0825   -9.0049    0.0000 C   0  0  0  0  0  0  0  0  0  0  0  0
    2.3773   -9.7620    0.0000 C   0  0  0  0  0  0  0  0  0  0  0  0
    3.8479  -10.0577    0.0000 C   0  0  0  0  0  0  0  0  0  0  0  0
    5.3348   -9.8599    0.0000 C   0  0  0  0  0  0  0  0  0  0  0  0
    5.7747  -11.2939    0.0000 C   0  0  0  0  0  0  0  0  0  0  0  0
    6.6769   -9.1900    0.0000 C   0  0  0  0  0  0  0  0  0  0  0  0
    7.7288   -8.1206    0.0000 C   0  0  0  0  0  0  0  0  0  0  0  0
    8.3764   -6.7676    0.0000 C   0  0  0  0  0  0  0  0  0  0  0  0
    8.5496   -5.2776    0.0000 C   0  0  0  0  0  0  0  0  0  0  0  0
   10.0478   -5.2032    0.0000 C   0  0  0  0  0  0  0  0  0  0  0  0
    8.2297   -3.8121    0.0000 C   0  0  0  0  0  0  0  0  0  0  0  0
    9.6225   -3.2553    0.0000 S   0  0  0  0  0  0  0  0  0  0  0  0
    9.8367   -1.7707    0.0000 C   0  0  0  0  0  0  0  0  0  0  0  0
   11.2295   -1.2139    0.0000 C   0  0  0  0  0  0  0  0  0  0  0  0
    6.9503   -6.8384    0.0000 S   0  0  0  0  0  0  0  0  0  0  0  0
    6.6303   -5.3729    0.0000 C   0  0  0  0  0  0  0  0  0  0  0  0
    6.8036   -3.8829    0.0000 C   0  0  0  0  0  0  0  0  0  0  0  0
    5.1322   -5.4473    0.0000 C   0  0  0  0  0  3  0  0  0  0  0  0
    4.3187   -4.1870    0.0000 S   0  0  0  0  0  0  0  0  0  0  0  0
    2.8206   -4.2614    0.0000 C   0  0  0  0  0  3  0  0  0  0  0  0
    2.0071   -3.0011    0.0000 S   0  0  0  0  0  0  0  0  0  0  0  0
    0.5089   -3.0755    0.0000 C   0  0  0  0  0  3  0  0  0  0  0  0
   -0.1758   -4.4101    0.0000 S   0  0  0  0  0  0  0  0  0  0  0  0
   -1.6739   -4.4845    0.0000 C   0  0  0  0  0  3  0  0  0  0  0  0
   -2.3586   -5.8192    0.0000 C   0  0  0  0  0  3  0  0  0  0  0  0
   -3.8567   -5.8935    0.0000 C   0  0  0  0  0  0  0  0  0  0  0  0
   -4.5414   -7.2282    0.0000 C   0  0  0  0  0  0  0  0  0  0  0  0
   -6.0396   -7.3025    0.0000 C   0  0  0  0  0  0  0  0  0  0  0  0
   -3.7279   -8.4884    0.0000 C   0  0  0  0  0  0  0  0  0  0  0  0
   -4.4126   -9.8230    0.0000 C   0  0  0  0  0  3  0  0  0  0  0  0
   -3.5991  -11.0833    0.0000 C   0  0  0  0  0  3  0  0  0  0  0  0
   -4.2838  -12.4179    0.0000 C   0  0  0  0  0  0  0  0  0  0  0  0
   -3.4703  -13.6782    0.0000 C   0  0  0  0  0  0  0  0  0  0  0  0
   -4.1549  -15.0128    0.0000 C   0  0  0  0  0  0  0  0  0  0  0  0
   -3.3414  -16.2731    0.0000 C   0  0  0  0  0  0  0  0  0  0  0  0
   -5.6531  -15.0872    0.0000 C   0  0  0  0  0  0  0  0  0  0  0  0
   -6.3378  -16.4218    0.0000 C   0  0  0  0  0  0  0  0  0  0  0  0
   -7.8359  -16.4962    0.0000 O   0  0  0  0  0  0  0  0  0  0  0  0
   -8.5206  -17.8308    0.0000 S   0  0  0  0  0  0  0  0  0  0  0  0
  -10.0187  -17.9052    0.0000 C   0  0  0  0  0  3  0  0  0  0  0  0
  -10.7034  -19.2398    0.0000 C   0  0  0  0  0  2  0  0  0  0  0  0
    5.5575   -7.3952    0.0000 S   0  0  0  0  0  0  0  0  0  0  0  0
    4.3789   -6.4673    0.0000 C   0  0  0  0  0  3  0  0  0  0  0  0
    2.9860   -7.0241    0.0000 C   0  0  0  0  0  0  0  0  0  0  0  0
    1.8074   -6.0963    0.0000 C   0  0  0  0  0  0  0  0  0  0  0  0
  1  2  2  3
  2  3  1  0
  2  4  1  0
  4  5  1  0
  5  6  1  0
  6  7  1  0
  7  8  1  0
  7  9  1  0
  9 10  1  0
 10 11  1  0
 11 12  1  0
 12 13  1  0
 13 14  1  0
 14 15  1  0
 16 15  1  1
 16 17  1  0
 17 18  1  0
 18 19  1  0
 19 20  1  0
 20 21  1  1
 20 22  1  0
 22 23  1  0
 23 24  1  0
 24 25  1  0
 25 26  1  1
 25 27  1  0
 28 27  1  1
 28 29  1  0
 29 30  1  0
 30 31  1  6
 30 32  1  0
 32 33  1  1
 33 34  1  0
 34 35  1  0
 28 36  1  0
 36 37  1  0
 37 38  1  0
 37 39  1  1
 39 40  1  0
 40 41  1  0
 41 42  1  0
 42 43  1  0
 43 44  1  0
 44 45  1  0
 45 46  1  0
 46 47  1  0
 47 48  1  0
 48 49  1  0
 48 50  1  0
 50 51  1  0
 51 52  1  0
 52 53  1  0
 53 54  1  0
 54 55  1  0
 55 56  1  6
 55 57  1  0
 57 58  1  0
 58 59  1  0
 59 60  1  0
 60 61  1  0
 61 62  1  0
 36 63  1  0
 63 64  1  0
 64 65  1  0
 65 66  1  0
 32  1  1  0
 38  1  1  0
 16  6  1  0
M  RAD  8   4   2   7   2  12   2  13   3  18   2  19   2  39   2  41   2
M  RAD  8  43   2  45   2  46   2  51   2  52   2  61   2  62   3  64   2
M  END
>  <fragInfo>  (1) 
1 2 3 4 5 6 7 8 9 10 11 12 13 14 15 16 17 18 19 20 21 22 23 24 25 26 27 28 29 30 31 32 36 37 38
33
34 35
39
40
41
42
43
44
45
46
47
48 49
50
51
52
53
54
55 56
57
58
59
60
61 62
63
64
65 66


>  <torsionInfo>  (1) 
32 33 0 1
36 63 0 24
37 39 0 3
33 34 1 2
39 40 3 4
40 41 4 5
41 42 5 6
42 43 6 7
43 44 7 8
44 45 8 9
45 46 9 10
46 47 10 11
47 48 11 12
48 50 12 13
50 51 13 14
51 52 14 15
52 53 15 16
53 54 16 17
54 55 17 18
55 57 18 19
57 58 19 20
58 59 20 21
59 60 21 22
60 61 22 23
63 64 24 25
64 65 25 26


>  <atomInfo>  (1) 
1  -0.0566017C 
2  -0.0692440C 
3  -0.0433223C 
4  -0.0134197C 
5  -0.0424566C 
6  -0.0320374C 
7  -0.0238032C 
8  -0.0588348C 
9  -0.0470428C 
10 -0.0524608C 
11 -0.0495676C 
12 -0.0312070C 
13 -0.0136497C 
14 -0.0459168C 
15 -0.0495699C 
16 -0.0377171C 
17 -0.0467434C 
18 -0.0346334C 
19 -0.0323483C 
20 -0.0408749C 
21 -0.0622236C 
22 -0.0504158C 
23 -0.0527873C 
24 -0.0506618C 
25 -0.0432636C 
26 -0.0624704C 
27 -0.0396191C 
28 -0.0043801C 
29 -0.0382498C 
30 -0.0274939C 
31 -0.0610961C 
32 0.02848910C 
33 -0.1541285SA
34 -0.0089880C 
35 -0.0561648C 
36 -0.1972296S 
37 0.01184961C 
38 -0.0184734C 
39 0.03013995C 
40 -0.1397628SA
41 0.07278399C 
42 -0.1291003SA
43 0.07275313C 
44 -0.1406266SA
45 0.02124889C 
46 -0.0241355C 
47 -0.0464375C 
48 -0.0436808C 
49 -0.0624881C 
50 -0.0472923C 
51 -0.0349287C 
52 -0.0351718C 
53 -0.0496420C 
54 -0.0503413C 
55 -0.0420332C 
56 -0.0624240C 
57 -0.0257407C 
58 0.06160555C 
59 -0.3149606OA
60 -0.0041196SA
61 0.04893898C 
62 -0.0173712C 
63 -0.1113408SA
64 0.02580736C 
65 -0.0422641C 
66 -0.0642562C 


$$$$
