
     RDKit          3D

 26 26  0  0  0  0  0  0  0  0999 V2000
    2.8920    3.1746   -3.6997 C   0  0  0  0  0  0  0  0  0  0  0  0
    3.2007    2.0648   -2.7310 C   0  0  0  0  0  0  0  0  0  0  0  0
    2.0601    1.1283   -2.4999 C   0  0  0  0  0  0  0  0  0  0  0  0
    3.8723    2.5440   -1.4836 C   0  0  0  0  0  0  0  0  0  0  0  0
    4.1472    1.3917   -0.5714 C   0  0  0  0  0  0  0  0  0  0  0  0
    2.8872    0.6567   -0.1528 C   0  0  0  0  0  0  0  0  0  0  0  0
    3.3004   -0.4678    0.7526 C   0  0  1  0  0  0  0  0  0  0  0  0
    4.0146    0.0117    1.9807 C   0  0  0  0  0  0  0  0  0  0  0  0
    2.1969   -1.4343    1.0831 C   0  0  0  0  0  3  0  0  0  0  0  0
    1.6328   -2.0864   -0.1344 C   0  0  0  0  0  0  0  0  0  0  0  0
    0.5578   -3.0759    0.1418 C   0  0  0  0  0  0  0  0  0  0  0  0
   -0.6499   -2.5504    0.8357 C   0  0  2  0  0  0  0  0  0  0  0  0
   -1.6918   -3.6213    1.0823 C   0  0  0  0  0  0  0  0  0  0  0  0
   -1.2876   -1.3553    0.1763 C   0  0  1  0  0  0  0  0  0  0  0  0
   -0.3869   -0.1754    0.0691 C   0  0  0  0  0  0  0  0  0  0  0  0
   -1.1130    1.1396    0.2877 C   0  0  2  0  0  0  0  0  0  0  0  0
   -0.6321    2.1727   -0.7075 C   0  0  0  0  0  0  0  0  0  0  0  0
   -0.8690    1.6841    1.6750 C   0  0  0  0  0  0  0  0  0  0  0  0
   -2.1968    2.1888    2.2514 C   0  0  0  0  0  3  0  0  0  0  0  0
   -3.2419    1.8990    1.3802 O   0  0  0  0  0  0  0  0  0  0  0  0
   -3.8479    0.6875    1.6478 C   0  0  0  0  0  0  0  0  0  0  0  0
   -3.3653   -0.3529    0.8891 O   0  0  0  0  0  0  0  0  0  0  0  0
   -4.0054   -0.5075   -0.3246 C   0  0  0  0  0  0  0  0  0  0  0  0
   -2.9639   -0.5646   -1.4157 C   0  0  0  0  0  0  0  0  0  0  0  0
   -1.9317   -1.6603   -1.1339 C   0  0  2  0  0  0  0  0  0  0  0  0
   -2.5789   -2.8917   -1.1508 O   0  0  0  0  0  0  0  0  0  0  0  0
  1  2  1  0
  2  3  1  0
  2  4  1  0
  4  5  1  0
  5  6  1  0
  6  7  1  0
  7  8  1  1
  7  9  1  0
  9 10  1  0
 10 11  1  0
 11 12  1  0
 12 13  1  6
 12 14  1  0
 14 15  1  6
 15 16  1  0
 16 17  1  6
 16 18  1  0
 18 19  1  0
 19 20  1  0
 20 21  1  0
 21 22  1  0
 22 23  1  0
 23 24  1  0
 24 25  1  0
 25 26  1  1
 25 14  1  0
M  RAD  2   9   2  19   2
M  END
>  <fragInfo>  (1) 
14 15 16 17 18 19 20 21 22 23 24 25 26
1 2 3
4
5
6
7 8
9
10
11
12 13


>  <torsionInfo>  (1) 
12 14 9 0
2 4 1 2
4 5 2 3
5 6 3 4
6 7 4 5
7 9 5 6
9 10 6 7
10 11 7 8
11 12 8 9


>  <atomInfo>  (1) 
1  -0.0627736C 
2  -0.0471324C 
3  -0.0627736C 
4  -0.0509643C 
5  -0.0527983C 
6  -0.0504266C 
7  -0.0411603C 
8  -0.0622342C 
9  -0.0357403C 
10 -0.0496528C 
11 -0.0500666C 
12 -0.0389503C 
13 -0.0621484C 
14 -0.0123452C 
15 -0.0450329C 
16 -0.0413439C 
17 -0.0624004C 
18 -0.0214512C 
19 0.08686610C 
20 -0.3494920OA
21 0.14671672C 
22 -0.3553112OA
23 0.05190664C 
24 -0.0029859C 
25 0.05925333C 
26 -0.3927404OA


$$$$
