
     RDKit          3D

 54 57  0  0  0  0  0  0  0  0999 V2000
   -0.3397    4.2106    1.5119 C   0  0  0  0  0  0  0  0  0  0  0  0
   -1.4487    4.9313    0.7772 C   0  0  2  0  0  0  0  0  0  0  0  0
   -1.1674    6.3969    0.5933 C   0  0  0  0  0  0  0  0  0  0  0  0
   -2.7674    4.8043    1.5012 C   0  0  0  0  0  0  0  0  0  0  0  0
   -3.8211    4.1562    0.6250 C   0  0  0  0  0  0  0  0  0  0  0  0
   -4.5574    3.0988    1.4216 C   0  0  0  0  0  0  0  0  0  0  0  0
   -3.8126    1.7878    1.3198 C   0  0  1  0  0  0  0  0  0  0  0  0
   -3.3584    1.3635    2.6969 C   0  0  0  0  0  0  0  0  0  0  0  0
   -4.7715    0.7784    0.7194 C   0  0  0  0  0  3  0  0  0  0  0  0
   -4.0167   -0.4843    0.3539 C   0  0  2  0  0  0  0  0  0  0  0  0
   -4.5838   -1.0957   -0.9007 C   0  0  0  0  0  0  0  0  0  0  0  0
   -3.9849   -0.3923   -2.0968 C   0  0  0  0  0  0  0  0  0  0  0  0
   -4.7557   -0.8363   -3.3215 C   0  0  0  0  0  0  0  0  0  0  0  0
   -4.0638    1.1017   -1.8855 C   0  0  0  0  0  0  0  0  0  0  0  0
   -2.5688   -0.8294   -2.2163 C   0  0  0  0  0  0  0  0  0  0  0  0
   -2.0050   -0.8736   -3.4252 C   0  0  0  0  0  0  0  0  0  0  0  0
   -0.6194   -1.2873   -3.6677 C   0  0  0  0  0  0  0  0  0  0  0  0
    0.3224   -1.0119   -2.5442 C   0  0  2  0  0  0  0  0  0  0  0  0
    0.1313   -1.8752   -1.3427 C   0  0  1  0  0  0  0  0  0  0  0  0
   -0.5035   -1.2564   -0.2909 O   0  0  0  0  0  0  0  0  0  0  0  0
   -0.4504   -3.2089   -1.6785 C   0  0  0  0  0  0  0  0  0  0  0  0
   -1.4608   -3.6350   -0.6456 C   0  0  0  0  0  0  0  0  0  0  0  0
   -0.9144   -4.6140    0.3514 C   0  0  0  0  0  0  0  0  0  0  0  0
   -1.3917   -4.1837    1.7339 C   0  0  2  0  0  0  0  0  0  0  0  0
   -2.3492   -3.1778    1.6373 O   0  0  0  0  0  0  0  0  0  0  0  0
   -3.2705   -3.4851    0.7531 O   0  0  0  0  0  0  0  0  0  0  0  0
   -4.4699   -2.8351    1.0957 C   0  0  0  0  0  0  0  0  0  0  0  0
   -4.1547   -1.4371    1.5360 C   0  0  0  0  0  0  0  0  0  0  0  0
   -0.2624   -3.6561    2.3820 O   0  0  0  0  0  0  0  0  0  0  0  0
    0.8526   -4.4193    1.9957 C   0  0  0  0  0  0  0  0  0  0  0  0
    1.6715   -4.5235    3.1142 O   0  0  0  0  0  0  0  0  0  0  0  0
    2.7007   -3.5778    2.9415 C   0  0  0  0  0  0  0  0  0  0  0  0
    3.1758   -3.6382    1.5043 C   0  0  2  0  0  0  0  0  0  0  0  0
    4.6425   -4.6893    1.3286 S   0  0  0  0  0  0  0  0  0  0  0  0
    5.0910   -4.6856   -0.3272 O   0  0  0  0  0  0  0  0  0  0  0  0
    3.4780   -2.2369    1.0657 C   0  0  0  0  0  0  0  0  0  0  0  0
    3.6384   -2.1246   -0.4390 C   0  0  0  0  0  0  0  0  0  0  0  0
    3.5291   -0.6596   -0.7847 C   0  0  2  0  0  0  0  0  0  0  0  0
    2.6640   -0.4002   -1.9723 C   0  0  0  0  0  0  0  0  0  0  0  0
    4.8682    0.0240   -0.8588 C   0  0  0  0  0  0  0  0  0  0  0  0
    4.7780    1.2908   -0.0268 C   0  0  0  0  0  0  0  0  0  0  0  0
    5.6289    2.3503   -0.6851 C   0  0  0  0  0  0  0  0  0  0  0  0
    5.3251    3.9591   -0.0086 S   0  0  0  0  0  3  0  0  0  0  0  0
    4.5099    5.0182   -1.1770 C   0  0  0  0  0  0  0  0  0  0  0  0
    4.4923    3.8839    1.4434 O   0  0  0  0  0  0  0  0  0  0  0  0
    3.1967    3.4058    1.2753 C   0  0  0  0  0  0  0  0  0  0  0  0
    2.1561    4.4491    1.5451 C   0  0  0  0  0  3  0  0  0  0  0  0
    0.9186    4.2539    0.7068 C   0  0  1  0  0  0  0  0  0  0  0  0
    1.1337    2.8797   -0.3617 S   0  0  0  0  0  3  0  0  0  0  0  0
    1.2389    3.3103   -1.9774 O   0  0  0  0  0  0  0  0  0  0  0  0
   -0.0205    1.5871   -0.0786 C   0  0  0  0  0  0  0  0  0  0  0  0
   -0.5327    1.0403   -1.3730 C   0  0  0  0  0  0  0  0  0  0  0  0
    0.5254    0.4317   -2.2371 C   0  0  1  0  0  0  0  0  0  0  0  0
    1.7541    0.6162   -1.6073 O   0  0  0  0  0  0  0  0  0  0  0  0
  1  2  1  0
  2  3  1  1
  2  4  1  0
  4  5  1  0
  5  6  1  0
  6  7  1  0
  7  8  1  1
  7  9  1  0
 10  9  1  1
 10 11  1  0
 11 12  1  0
 12 13  1  0
 12 14  1  0
 12 15  1  0
 15 16  2  3
 16 17  1  0
 18 17  1  6
 18 19  1  0
 19 20  1  1
 19 21  1  0
 21 22  1  0
 22 23  1  0
 23 24  1  0
 24 25  1  6
 25 26  1  0
 26 27  1  0
 27 28  1  0
 24 29  1  0
 29 30  1  0
 30 31  1  0
 31 32  1  0
 32 33  1  0
 33 34  1  1
 34 35  1  0
 33 36  1  0
 36 37  1  0
 38 37  1  6
 38 39  1  0
 38 40  1  0
 40 41  1  0
 41 42  1  0
 42 43  1  0
 43 44  1  6
 43 45  1  0
 45 46  1  0
 46 47  1  0
 48 47  1  1
 48 49  1  0
 49 50  1  6
 49 51  1  0
 51 52  1  0
 53 52  1  1
 53 54  1  0
 48  1  1  0
 28 10  1  0
 53 18  1  0
 54 39  1  0
M  CHG  2  43   1  49   1
M  RAD  2   9   2  47   2
M  END
>  <fragInfo>  (1) 
1 2 3 4 5 6 7 8 9 10 11 12 13 14 15 16 17 18 19 20 21 22 23 24 25 26 27 28 29 30 31 32 33 36 37 38 39 40 41 42 43 44 45 46 47 48 49 50 51 52 53 54
34 35


>  <torsionInfo>  (1) 
33 34 0 1


>  <atomInfo>  (1) 
1  0.00101143C 
2  -0.0393970C 
3  -0.0623193C 
4  -0.0505109C 
5  -0.0527847C 
6  -0.0504159C 
7  -0.0408837C 
8  -0.0622238C 
9  -0.0325242C 
10 -0.0349323C 
11 -0.0414144C 
12 -0.0172091C 
13 -0.0563978C 
14 -0.0563978C 
15 -0.0828370C 
16 -0.0875283C 
17 -0.0272359C 
18 0.01472893C 
19 0.05957585C 
20 -0.3927273OA
21 -0.0264337C 
22 -0.0458887C 
23 0.00156264C 
24 0.19339982C 
25 -0.2044060OA
26 -0.2340337OA
27 0.08259734C 
28 -0.0232523C 
29 -0.3235423OA
30 0.14957983C 
31 -0.3540603OA
32 0.06356450C 
33 0.05433911C 
34 -0.0070512SA
35 -0.3296798OA
36 -0.0364532C 
37 -0.0470221C 
38 -0.0176053C 
39 0.04977981C 
40 -0.0436609C 
41 -0.0044742C 
42 0.14055689C 
43 0.14346097S 
44 0.13085082C 
45 -0.1737626OA
46 0.11165846C 
47 0.04852594C 
48 0.15642324C 
49 0.14678125S 
50 -0.1872802OA
51 0.14339718C 
52 0.02199360C 
53 0.06764589C 
54 -0.3773402OA


$$$$
