
     RDKit          3D

 25 25  0  0  0  0  0  0  0  0999 V2000
   -4.4688   -0.5987   -2.0270 C   0  0  0  0  0  0  0  0  0  0  0  0
   -3.5250    0.3064   -1.2549 C   0  0  1  0  0  0  0  0  0  0  0  0
   -4.1918    1.6416   -1.0525 C   0  0  0  0  0  0  0  0  0  0  0  0
   -4.7493    1.6676    0.3558 C   0  0  2  0  0  0  0  0  0  0  0  0
   -3.6632    1.8197    1.2208 O   0  0  0  0  0  0  0  0  0  0  0  0
   -5.4139    0.3258    0.5938 C   0  0  2  0  0  0  0  0  0  0  0  0
   -6.4034    0.4051    1.5708 O   0  0  0  0  0  0  0  0  0  0  0  0
   -4.3285   -0.6539    0.9277 C   0  0  1  0  0  0  0  0  0  0  0  0
   -4.7272   -1.9663    0.9769 O   0  0  0  0  0  0  0  0  0  0  0  0
   -3.1569   -0.3932    0.0149 C   0  0  1  0  0  0  0  0  0  0  0  0
   -2.4937   -1.6354   -0.3382 N   0  0  0  0  0  0  0  0  0  0  0  0
   -1.2614   -1.3126   -1.0564 C   0  0  0  0  0  3  0  0  0  0  0  0
   -0.1129   -1.8522   -0.2162 C   0  0  0  0  0  0  0  0  0  0  0  0
    0.2112   -0.8106    0.6762 O   0  0  0  0  0  0  0  0  0  0  0  0
    0.5754    0.2912   -0.0833 C   0  0  0  0  0  0  0  0  0  0  0  0
    1.6909   -0.0726   -0.8703 O   0  0  0  0  0  0  0  0  0  0  0  0
    2.7172   -0.4441    0.0234 C   0  0  0  0  0  0  0  0  0  0  0  0
    3.8405   -0.8069   -0.7090 O   0  0  0  0  0  0  0  0  0  0  0  0
    4.8000   -1.1545    0.1270 O   0  0  0  0  0  0  0  0  0  0  0  0
    5.5026   -0.0539    0.5539 C   0  0  1  0  0  0  0  0  0  0  0  0
    6.4952   -0.4757    1.4410 O   0  0  0  0  0  0  0  0  0  0  0  0
    6.2080    0.6383   -0.6222 C   0  0  2  0  0  0  0  0  0  0  0  0
    6.9060    1.7421   -0.0703 O   0  0  0  0  0  0  0  0  0  0  0  0
    5.1505    1.2132   -1.5617 C   0  0  0  0  0  3  0  0  0  0  0  0
    4.3985    2.1796   -0.8518 O   0  0  0  0  0  0  0  0  0  0  0  0
  2  1  1  1
  2  3  1  0
  3  4  1  0
  4  5  1  1
  4  6  1  0
  6  7  1  1
  6  8  1  0
  8  9  1  6
  8 10  1  0
 10 11  1  6
 11 12  1  0
 12 13  1  0
 13 14  1  0
 14 15  1  0
 15 16  1  0
 16 17  1  0
 17 18  1  0
 18 19  1  0
 19 20  1  0
 20 21  1  1
 20 22  1  0
 22 23  1  1
 22 24  1  0
 24 25  1  0
 10  2  1  0
M  RAD  2  12   2  24   2
M  END
>  <fragInfo>  (1) 
1 2 3 4 5 6 7 8 9 10
11
12
13
14
15
16
17
18
19
20 21
22 23
24 25


>  <torsionInfo>  (1) 
10 11 0 1
11 12 1 2
12 13 2 3
13 14 3 4
14 15 4 5
15 16 5 6
16 17 6 7
17 18 7 8
18 19 8 9
19 20 9 10
20 22 10 11
22 24 11 12


>  <atomInfo>  (1) 
1  -0.0608233C 
2  -0.0236270C 
3  -0.0201755C 
4  0.08280077C 
5  -0.3903155OA
6  0.10722524C 
7  -0.3876533OA
8  0.09793062C 
9  -0.3886791OA
10 0.03847605C 
11 -0.3045626NA
12 0.04842701C 
13 0.06641675C 
14 -0.3536270OA
15 0.14931411C 
16 -0.3262163OA
17 0.18323637C 
18 -0.2050597OA
19 -0.1993210OA
20 0.21729541C 
21 -0.3635686OA
22 0.13605430C 
23 -0.3848713OA
24 0.11355765C 
25 -0.3873909OA


$$$$
