
     RDKit          3D

 38 39  0  0  0  0  0  0  0  0999 V2000
   -3.3953    0.8551   -0.4399 C   0  0  1  0  0  0  0  0  0  0  0  0
   -2.5832    1.9163   -1.1387 C   0  0  1  0  0  0  0  0  0  0  0  0
   -3.3683    2.6403   -2.2056 C   0  0  0  0  0  0  0  0  0  0  0  0
   -1.9401    2.8788   -0.1695 C   0  0  0  0  0  0  0  0  0  0  0  0
   -0.6367    3.3575   -0.7805 C   0  0  0  0  0  0  0  0  0  0  0  0
    0.4852    3.3279    0.2452 C   0  0  0  0  0  0  0  0  0  0  0  0
    1.8469    3.2324   -0.4117 C   0  0  1  0  0  0  0  0  0  0  0  0
    2.2112    4.5023   -1.1547 C   0  0  0  0  0  0  0  0  0  0  0  0
    2.8653    3.0569    0.6983 C   0  0  0  0  0  3  0  0  0  0  0  0
    4.2413    2.9498    0.1159 C   0  0  0  0  0  0  0  0  0  0  0  0
    4.4363    1.6730   -0.6697 C   0  0  0  0  0  0  0  0  0  0  0  0
    4.9398    0.6009    0.2767 C   0  0  2  0  0  0  0  0  0  0  0  0
    6.0445    1.2235    1.1239 C   0  0  0  0  0  0  0  0  0  0  0  0
    5.5560   -0.5667   -0.4557 C   0  0  0  0  0  3  0  0  0  0  0  0
    4.4929   -1.6242   -0.6122 C   0  0  0  0  0  0  0  0  0  0  0  0
    4.8593   -2.7908    0.2800 C   0  0  2  0  0  0  0  0  0  0  0  0
    5.9963   -3.5935   -0.3052 C   0  0  0  0  0  2  0  0  0  0  0  0
    3.6361   -3.6692    0.4785 C   0  0  2  0  0  0  0  0  0  0  0  0
    3.8376   -5.0094   -0.1959 C   0  0  0  0  0  0  0  0  0  0  0  0
    2.3825   -2.9693    0.0124 C   0  0  0  0  0  0  0  0  0  0  0  0
    2.4763   -2.6013   -1.4325 C   0  0  0  0  0  0  0  0  0  0  0  0
    1.5398   -1.4843   -1.8045 C   0  0  0  0  0  0  0  0  0  0  0  0
    1.1673   -0.7299   -0.5319 C   0  0  0  0  0  0  0  0  0  0  0  0
   -0.2137   -1.1256   -0.0390 C   0  0  1  0  0  0  0  0  0  0  0  0
   -0.7159   -2.0547   -0.9231 O   0  0  0  0  0  0  0  0  0  0  0  0
   -0.0273   -1.8298    1.3043 C   0  0  0  0  0  0  0  0  0  0  0  0
   -1.0517    0.1121    0.0860 C   0  0  0  0  0  0  0  0  0  0  0  0
   -2.5216   -0.1679    0.2425 C   0  0  2  0  0  0  0  0  0  0  0  0
   -2.9570   -1.5583   -0.0869 C   0  0  0  0  0  2  0  0  0  0  0  0
   -3.1390    0.3943    1.5202 C   0  0  2  0  0  0  0  0  0  0  0  0
   -2.1153    1.1870    2.3391 C   0  0  0  0  0  0  0  0  0  0  0  0
   -3.7212   -0.6954    2.3475 C   0  0  0  0  0  2  0  0  0  0  0  0
   -3.9958    1.2480    0.7999 N   0  0  0  0  0  0  0  0  0  0  0  0
   -5.3942    1.1094    0.8194 C   0  0  0  0  0  0  0  0  0  0  0  0
   -6.0014   -0.0751    0.1794 C   0  0  0  0  0  3  0  0  0  0  0  0
   -6.3523    0.0795   -1.2643 C   0  0  0  0  0  0  0  0  0  0  0  0
   -6.9787   -1.2082   -1.7788 C   0  0  0  0  0  0  0  0  0  0  0  0
   -5.9061   -2.5913   -1.6347 Cl  0  0  0  0  0  0  0  0  0  0  0  0
  1  2  1  0
  2  3  1  6
  2  4  1  0
  4  5  1  0
  5  6  1  0
  6  7  1  0
  7  8  1  1
  7  9  1  0
  9 10  1  0
 10 11  1  0
 11 12  1  0
 12 13  1  1
 12 14  1  0
 14 15  1  0
 15 16  1  0
 16 17  1  6
 16 18  1  0
 18 19  1  6
 18 20  1  0
 20 21  1  0
 21 22  1  0
 22 23  1  0
 23 24  1  0
 24 25  1  0
 24 26  1  1
 24 27  1  0
 27 28  1  0
 28 29  1  6
 28 30  1  0
 30 31  1  1
 30 32  1  0
 30 33  1  0
 33 34  1  0
 34 35  1  0
 35 36  1  0
 36 37  1  0
 37 38  1  0
 28  1  1  0
  1 33  1  1
M  RAD  6   9   2  14   2  17   3  29   3  32   3  35   2
M  END
>  <fragInfo>  (1) 
1 2 3 4 5 6 7 8 9 10 11 12 13 14 15 16 17 18 19 20 21 22 23 24 25 26 27 28 29 30 31 32 33
34
35
36
37 38


>  <torsionInfo>  (1) 
33 34 0 1
34 35 1 2
35 36 2 3
36 37 3 4


>  <atomInfo>  (1) 
1  0.02048352C 
2  -0.0279420C 
3  -0.0609907C 
4  -0.0491857C 
5  -0.0527298C 
6  -0.0504254C 
7  -0.0411603C 
8  -0.0622342C 
9  -0.0357403C 
10 -0.0496542C 
11 -0.0501520C 
12 -0.0411395C 
13 -0.0622339C 
14 -0.0354559C 
15 -0.0465204C 
16 -0.0351501C 
17 -0.0315153C 
18 -0.0411390C 
19 -0.0622339C 
20 -0.0504342C 
21 -0.0529364C 
22 -0.0505706C 
23 -0.0244000C 
24 0.06260565C 
25 -0.3901591OA
26 -0.0360569C 
27 -0.0151580C 
28 0.01074014C 
29 -0.0247545C 
30 0.02945719C 
31 -0.0457020C 
32 -0.0125834C 
33 -0.2928699NA
34 0.00223254C 
35 -0.0233364C 
36 -0.0352215C 
37 0.02261799C 
38 -0.1267049Cl


$$$$
