
     RDKit          3D

 26 25  0  0  0  0  0  0  0  0999 V2000
    5.7500    0.0585    2.2464 C   0  0  0  0  0  0  0  0  0  0  0  0
    5.2058   -0.4437    0.8958 C   0  0  0  0  0  0  0  0  0  0  0  0
    6.2358   -1.3128    0.2301 C   0  0  0  0  0  0  0  0  0  0  0  0
    4.9329    0.6604    0.0923 O   0  0  0  0  0  0  0  0  0  0  0  0
    3.9692   -1.2469    1.0863 C   0  0  0  0  0  0  0  0  0  0  0  0
    3.4004   -1.7838   -0.1424 C   0  0  0  0  0  0  0  0  0  0  0  0
    2.9538   -0.8127   -1.1401 C   0  0  0  0  0  0  0  0  0  0  0  0
    3.7356   -0.2362   -1.8972 O   0  0  0  0  0  0  0  0  0  0  0  0
    1.4799   -0.5155   -1.2384 C   0  0  1  0  0  0  0  0  0  0  0  0
    1.0137   -0.8279   -2.6554 C   0  0  0  0  0  0  0  0  0  0  0  0
    0.8134   -1.3501   -0.3681 O   0  0  0  0  0  0  0  0  0  0  0  0
    1.2832    0.9386   -0.9112 C   0  0  2  0  0  0  0  0  0  0  0  0
    1.8005    1.2953    0.4566 C   0  0  0  0  0  0  0  0  0  0  0  0
   -0.0815    1.2317   -1.0199 O   0  0  0  0  0  0  0  0  0  0  0  0
   -0.8344    0.4444   -0.1616 C   0  0  0  0  0  0  0  0  0  0  0  0
   -2.2814    0.8674   -0.3716 C   0  0  0  0  0  0  0  0  0  0  0  0
   -2.6884    0.6489   -1.8100 C   0  0  0  0  0  0  0  0  0  0  0  0
   -2.3959    2.3151    0.0500 C   0  0  0  0  0  0  0  0  0  0  0  0
   -3.1305    0.0521    0.5783 C   0  0  1  0  0  0  0  0  0  0  0  0
   -4.5356    0.4665    0.3681 C   0  0  0  0  0  0  0  0  0  0  0  0
   -5.1479    1.0850    1.3584 C   0  0  0  0  0  0  0  0  0  0  0  0
   -6.5439    1.5367    1.2506 C   0  0  0  0  0  0  0  0  0  0  0  0
   -7.0525    2.1422    2.2987 C   0  0  0  0  0  0  0  0  0  0  0  0
   -2.9126   -1.4082    0.4581 C   0  0  0  0  0  0  0  0  0  0  0  0
   -3.1723   -1.9601   -0.7521 F   0  0  0  0  0  0  0  0  0  0  0  0
   -1.7972   -1.8448    1.0983 F   0  0  0  0  0  0  0  0  0  0  0  0
  1  2  1  0
  2  3  1  0
  2  4  1  0
  2  5  1  0
  5  6  1  0
  6  7  1  0
  7  8  2  0
  7  9  1  0
  9 10  1  6
  9 11  1  0
  9 12  1  0
 12 13  1  1
 12 14  1  0
 14 15  1  0
 15 16  1  0
 16 17  1  0
 16 18  1  0
 16 19  1  0
 19 20  1  0
 20 21  2  3
 21 22  1  0
 22 23  2  0
 19 24  1  6
 24 25  1  0
 24 26  1  0
M  END
>  <fragInfo>  (1) 
1 2 3 4
5
6
7 8
9 10 11
12 13
14
15
16 17 18
19
20 21
22 23
24 25 26


>  <torsionInfo>  (1) 
2 5 0 1
5 6 1 2
6 7 2 3
7 9 3 4
9 12 4 5
12 14 5 6
14 15 6 7
15 16 7 8
16 19 8 9
19 20 9 10
19 24 9 12
21 22 10 11


>  <atomInfo>  (1) 
1  -0.0363415C 
2  0.05955687C 
3  -0.0363415C 
4  -0.3904578OA
5  -0.0176617C 
6  0.01193876C 
7  0.16633326C 
8  -0.2963506OA
9  0.14547074C 
10 -0.0262545C 
11 -0.3796342OA
12 0.09023471C 
13 -0.0353659C 
14 -0.3744593OA
15 0.05296966C 
16 -0.0001647C 
17 -0.0569227C 
18 -0.0569227C 
19 0.04545307C 
20 -0.0752055C 
21 -0.0663557C 
22 -0.0697966C 
23 -0.0990767C 
24 0.24493378C 
25 -0.2098324F 
26 -0.2098324F 


$$$$
