
     RDKit          3D

 29 29  0  0  0  0  0  0  0  0999 V2000
    1.7227   -1.9748    2.1206 C   0  0  0  0  0  0  0  0  0  0  0  0
    0.2857   -2.3376    2.3438 C   0  0  0  0  0  0  0  0  0  0  0  0
    0.1144   -3.6442    3.0660 C   0  0  0  0  0  0  0  0  0  0  0  0
   -0.4281   -1.2506    3.1374 C   0  0  0  0  0  0  0  0  0  0  0  0
   -0.4001   -2.3767    0.9810 C   0  0  0  0  0  0  0  0  0  0  0  0
   -0.3233   -1.0460    0.2896 C   0  0  1  0  0  0  0  0  0  0  0  0
    1.0537   -0.6977    0.1023 N   0  0  0  0  0  0  0  0  0  0  0  0
    1.5328    0.4663    0.1923 C   0  0  0  0  0  0  0  0  0  0  0  0
    0.6721    1.6253    0.5142 C   0  0  2  0  0  0  0  0  0  0  0  0
    0.4527    1.7680    1.8743 O   0  0  0  0  0  0  0  0  0  0  0  0
   -0.5619    1.6578   -0.2083 N   0  0  0  0  0  0  0  0  0  0  0  0
   -1.7229    1.7088    0.6596 C   0  0  0  0  0  0  0  0  0  0  0  0
   -2.8504    2.2792   -0.0890 C   0  0  0  0  0  0  0  0  0  0  0  0
   -3.9470    1.6664   -0.4313 C   0  0  0  0  0  0  0  0  0  0  0  0
   -4.2721    0.2772   -0.1340 C   0  0  0  0  0  0  0  0  0  0  0  0
   -5.4939    0.0166    0.0567 O   0  0  0  0  0  0  0  0  0  0  0  0
   -3.2202   -0.6563   -0.0817 N   0  0  0  0  0  0  0  0  0  0  0  0
   -2.3196   -0.9866   -1.1056 C   0  0  0  0  0  0  0  0  0  0  0  0
   -1.0375   -1.1708   -1.0053 C   0  0  0  0  0  0  0  0  0  0  0  0
   -0.2341   -1.5183   -2.2063 C   0  0  0  0  0  0  0  0  0  0  0  0
   -4.9641    2.4726   -1.1995 C   0  0  0  0  0  0  0  0  0  0  0  0
   -6.2670    2.5093   -0.3937 C   0  0  0  0  0  2  0  0  0  0  0  0
    2.9980    0.7574   -0.0189 C   0  0  0  0  0  0  0  0  0  0  0  0
    3.2197    1.6938   -1.1254 C   0  0  0  0  0  0  0  0  0  0  0  0
    3.9517    1.2957   -2.1584 C   0  0  0  0  0  0  0  0  0  0  0  0
    4.5282   -0.0209   -2.2189 N   0  0  0  0  0  0  0  0  0  0  0  0
    5.8946   -0.2680   -1.8195 C   0  0  0  0  0  3  0  0  0  0  0  0
    5.9080   -1.2731   -0.7160 C   0  0  0  0  0  0  0  0  0  0  0  0
    5.7080   -0.9729    0.4550 O   0  0  0  0  0  0  0  0  0  0  0  0
  1  2  1  0
  2  3  1  0
  2  4  1  0
  2  5  1  0
  6  5  1  6
  6  7  1  0
  7  8  2  3
  8  9  1  0
  9 10  1  1
  9 11  1  0
 11 12  1  0
 12 13  1  0
 13 14  2  3
 14 15  1  0
 15 16  2  0
 15 17  1  0
 17 18  1  0
 18 19  2  3
 19 20  1  0
 14 21  1  0
 21 22  1  0
  8 23  1  0
 23 24  1  0
 24 25  2  3
 25 26  1  0
 26 27  1  0
 27 28  1  0
 28 29  2  0
 19  6  1  0
M  RAD  2  22   3  27   2
M  END
>  <fragInfo>  (1) 
6 7 8 9 10 11 12 13 14 15 16 17 18 19 20
1 2 3 4
5
21 22
23
24 25
26
27
28 29


>  <torsionInfo>  (1) 
5 6 2 0
8 23 0 4
14 21 0 3
2 5 1 2
23 24 4 5
25 26 5 6
26 27 6 7
27 28 7 8


>  <atomInfo>  (1) 
1  -0.0600840C 
2  -0.0359080C 
3  -0.0600840C 
4  -0.0600840C 
5  -0.0218000C 
6  0.07291469C 
7  -0.2818147NA
8  0.06012417C 
9  0.14387089C 
10 -0.3730086OA
11 -0.2839340NA
12 0.01694610C 
13 -0.0619148C 
14 0.01480146C 
15 0.25035106C 
16 -0.2693346OA
17 -0.3288669N 
18 0.00509884C 
19 -0.0328162C 
20 -0.0400577C 
21 -0.0192780C 
22 -0.0302834C 
23 0.00909148C 
24 -0.0629968C 
25 -0.0066499C 
26 -0.3796962N 
27 0.10867063C 
28 0.14425480C 
29 -0.3009721OA


$$$$
