
     RDKit          3D

 11 10  0  0  0  0  0  0  0  0999 V2000
    3.2471   -0.6171    0.5255 O   0  0  0  0  0  0  0  0  0  0  0  0
    3.2292    0.7492    0.3351 C   0  0  0  0  0  0  0  0  0  0  0  0
    1.8213    1.2531    0.4789 C   0  0  0  0  0  3  0  0  0  0  0  0
    0.9205    0.1714    0.7694 N   0  0  0  0  0  0  0  0  0  0  0  0
    0.1847   -0.1573   -0.4304 C   0  0  0  0  0  3  0  0  0  0  0  0
   -0.8686   -1.1834   -0.0762 C   0  0  2  0  0  0  0  0  0  0  0  0
   -1.6115   -1.5359   -1.2084 O   0  0  0  0  0  0  0  0  0  0  0  0
   -1.7943   -0.5954    0.9450 C   0  0  1  0  0  0  0  0  0  0  0  0
   -1.0919   -0.2330    2.0848 O   0  0  0  0  0  0  0  0  0  0  0  0
   -2.4925    0.5983    0.3343 C   0  0  0  0  0  3  0  0  0  0  0  0
   -1.5440    1.5501   -0.0484 O   0  0  0  0  0  0  0  0  0  0  0  0
  1  2  1  0
  2  3  1  0
  3  4  1  0
  4  5  1  0
  5  6  1  0
  6  7  1  6
  6  8  1  0
  8  9  1  1
  8 10  1  0
 10 11  1  0
M  RAD  3   3   2   5   2  10   2
M  END
>  <fragInfo>  (1) 
1 2
3
4
5
6 7
8 9
10 11


>  <torsionInfo>  (1) 
2 3 0 1
3 4 1 2
4 5 2 3
5 6 3 4
6 8 4 5
8 10 5 6


>  <atomInfo>  (1) 
1  -0.3946905OA
2  0.06004153C 
3  0.04806586C 
4  -0.3033994NA
5  0.05401030C 
6  0.09940357C 
7  -0.3886215OA
8  0.10992930C 
9  -0.3875415OA
10 0.11094400C 
11 -0.3874987OA


$$$$
