
     RDKit          3D

 25 26  0  0  0  0  0  0  0  0999 V2000
   -0.3639    0.1700   -0.0349 C   0  0  2  0  0  0  0  0  0  0  0  0
   -0.4417    1.4824    0.2983 O   0  0  0  0  0  0  0  0  0  0  0  0
   -0.9587    2.2812   -0.7285 C   0  0  0  0  0  3  0  0  0  0  0  0
   -1.7681    3.2338   -0.1249 O   0  0  0  0  0  0  0  0  0  0  0  0
   -3.1001    2.8618   -0.2325 C   0  0  2  0  0  0  0  0  0  0  0  0
   -4.0311    3.9736    0.1721 C   0  0  0  0  0  0  0  0  0  0  0  0
   -3.3989    1.5817    0.5001 C   0  0  0  0  0  3  0  0  0  0  0  0
   -3.8807    0.5732   -0.5084 C   0  0  0  0  0  3  0  0  0  0  0  0
   -4.3514   -0.6739    0.1813 C   0  0  0  0  0  3  0  0  0  0  0  0
   -3.5338   -1.8895   -0.1488 C   0  0  0  0  0  3  0  0  0  0  0  0
   -2.1262   -1.5532   -0.5896 C   0  0  1  0  0  0  0  0  0  0  0  0
   -1.3750   -0.7579    0.3955 C   0  0  1  0  0  0  0  0  0  0  0  0
   -1.5128   -1.1036    1.8182 C   0  0  0  0  0  0  0  0  0  0  0  0
   -1.4221   -2.8843   -0.8245 C   0  0  0  0  0  0  0  0  0  0  0  0
   -0.1155   -2.7037   -1.2762 O   0  0  0  0  0  0  0  0  0  0  0  0
    0.8128   -3.1801   -0.3476 C   0  0  0  0  0  0  0  0  0  0  0  0
    1.0467   -2.2076    0.6310 O   0  0  0  0  0  0  0  0  0  0  0  0
    1.7594   -1.1580    0.0595 C   0  0  2  0  0  0  0  0  0  0  0  0
    2.4543   -0.4068    1.0038 O   0  0  0  0  0  0  0  0  0  0  0  0
    3.7298   -0.7323    0.8811 O   0  0  0  0  0  0  0  0  0  0  0  0
    4.1136   -0.4057   -0.3423 O   0  0  0  0  0  0  0  0  0  0  0  0
    4.8642    0.8466   -0.2415 B   0  0  0  0  0  0  0  0  0  0  0  0
    6.0457    0.8748    0.6200 O   0  0  0  0  0  0  0  0  0  0  0  0
    6.7270    2.0732    0.4243 C   0  0  0  0  0  2  0  0  0  0  0  0
    0.8263   -0.2958   -0.7613 C   0  0  0  0  0  0  0  0  0  0  0  0
  1  2  1  0
  2  3  1  0
  3  4  1  0
  4  5  1  0
  5  6  1  1
  5  7  1  0
  7  8  1  0
  8  9  1  0
  9 10  1  0
 11 10  1  1
 11 12  1  0
 12 13  1  1
 11 14  1  0
 14 15  1  0
 15 16  1  0
 16 17  1  0
 17 18  1  0
 18 19  1  1
 19 20  1  0
 20 21  1  0
 21 22  1  0
 22 23  1  0
 23 24  1  0
 18 25  1  0
 12  1  1  0
  1 25  1  1
M  RAD  6   3   2   7   2   8   2   9   2  10   2  24   3
M  END
>  <fragInfo>  (1) 
1 2 3 4 5 6 7 8 9 10 11 12 13 14 15 16 17 18 25
19
20
21
22
23 24


>  <torsionInfo>  (1) 
18 19 0 1
19 20 1 2
20 21 2 3
21 22 3 4
22 23 4 5


>  <atomInfo>  (1) 
1  0.06872743C 
2  -0.3441189OA
3  0.20949993C 
4  -0.3445928OA
5  0.06152466C 
6  -0.0382533C 
7  -0.0061446C 
8  -0.0288326C 
9  -0.0310180C 
10 -0.0291308C 
11 -0.0092778C 
12 -0.0121854C 
13 -0.0596606C 
14 0.05289714C 
15 -0.3549865OA
16 0.14954190C 
17 -0.3233091OA
18 0.19895818C 
19 -0.1750299OA
20 -0.0791230OA
21 -0.2390956OA
22 0.47762192B 
23 -0.4039308OA
24 0.09674936C 
25 0.02839457C 


$$$$
