
     RDKit          3D

 26 28  0  0  0  0  0  0  0  0999 V2000
   -1.2924   -0.7349    0.4480 C   0  0  1  0  0  0  0  0  0  0  0  0
   -0.8950   -1.7384    1.1600 O   0  0  0  0  0  0  0  0  0  0  0  0
   -1.0697   -3.1534    1.1626 C   0  0  0  0  0  0  0  0  0  0  0  0
   -1.9038   -3.9173    0.4675 C   0  0  0  0  0  0  0  0  0  0  0  0
   -2.5425   -3.3390   -0.8417 C   0  0  0  0  0  0  0  0  0  0  0  0
   -2.3522   -2.0456   -1.0222 C   0  0  0  0  0  0  0  0  0  0  0  0
   -2.8925   -1.1057    0.0044 C   0  0  2  0  0  0  0  0  0  0  0  0
   -3.4766    0.1648   -0.4160 C   0  0  0  0  0  0  0  0  0  0  0  0
   -4.9179    0.3061    0.0354 C   0  0  0  0  0  0  0  0  0  0  0  0
   -5.0867    1.7034    0.7543 C   0  0  0  0  0  3  0  0  0  0  0  0
   -3.6921    2.0314    1.2157 C   0  0  0  0  0  0  0  0  0  0  0  0
   -2.8516    2.8090    0.4494 C   0  0  0  0  0  0  0  0  0  0  0  0
   -1.4141    2.9967    1.1376 C   0  0  0  0  0  0  0  0  0  0  0  0
   -0.7753    1.6675    0.4187 C   0  0  0  0  0  0  0  0  0  0  0  0
   -1.5744    0.6584    0.9271 C   0  0  0  0  0  0  0  0  0  0  0  0
   -1.6290   -1.1065   -1.8233 C   0  0  0  0  0  0  0  0  0  0  0  0
   -0.8170   -0.5243   -0.9301 N   0  0  0  0  0  4  0  0  0  0  0  0
    0.4563    0.1819   -1.2253 C   0  0  0  0  0  0  0  0  0  0  0  0
    1.4864   -0.6545   -0.7162 C   0  0  0  0  0  0  0  0  0  0  0  0
    2.8278   -0.7108   -0.6331 C   0  0  0  0  0  0  0  0  0  0  0  0
    3.5691    0.4598    0.0969 C   0  0  0  0  0  0  0  0  0  0  0  0
    4.9547    0.1024    0.1260 C   0  0  0  0  0  2  0  0  0  0  0  0
    6.0750    0.9795   -0.2609 C   0  0  1  0  0  0  0  0  0  0  0  0
    5.5019    2.1331   -1.1423 C   0  0  0  0  0  2  0  0  0  0  0  0
    6.4891    1.6128    0.9974 O   0  0  0  0  0  0  0  0  0  0  0  0
    7.8226    1.2237    1.0231 O   0  0  0  0  0  0  0  0  0  0  0  0
  1  2  1  1
  2  3  1  0
  3  4  2  0
  4  5  1  0
  5  6  2  0
  6  7  1  0
  7  8  1  6
  8  9  1  0
  9 10  1  0
 10 11  1  0
 11 12  2  3
 12 13  1  0
 13 14  1  0
 14 15  2  3
  6 16  1  0
 16 17  2  0
 17 18  1  0
 18 19  1  0
 19 20  1  0
 20 21  1  0
 21 22  1  0
 22 23  1  0
 23 24  1  6
 23 25  1  0
 25 26  1  0
  7  1  1  0
 15  1  1  0
 17  1  1  0
M  CHG  1  17   1
M  RAD  3  10   2  22   3  24   3
M  END
>  <fragInfo>  (1) 
1 2 3 4 5 6 7 8 9 10 11 12 13 14 15 16 17
18
19
20
21
22
23 24
25 26


>  <torsionInfo>  (1) 
17 18 0 1
18 19 1 2
19 20 2 3
20 21 3 4
21 22 4 5
22 23 5 6
23 25 6 7


>  <atomInfo>  (1) 
1  0.33256515C 
2  -0.4358911OA
3  0.09125553C 
4  -0.0266961C 
5  -0.0493240C 
6  0.03010081C 
7  0.09807319C 
8  -0.0345184C 
9  -0.0453742C 
10 -0.0170106C 
11 -0.0845220C 
12 -0.0844446C 
13 -0.0164936C 
14 -0.0738786C 
15 0.02578571C 
16 0.17077293C 
17 -0.1917078N 
18 0.14696652C 
19 0.00632881C 
20 -0.0466212C 
21 -0.0434203C 
22 0.01783044C 
23 0.10314125C 
24 0.00044116C 
25 -0.2351560OA
26 -0.2515066OA


$$$$
