
     RDKit          3D

 19 18  0  0  0  0  0  0  0  0999 V2000
   -3.1624   -3.1542    1.9906 O   0  0  0  0  0  1  0  0  0  0  0  0
   -4.1164   -2.7870    1.0679 C   0  0  1  0  0  0  0  0  0  0  0  0
   -5.4076   -2.7416    1.5964 O   0  0  0  0  0  0  0  0  0  0  0  0
   -3.7683   -1.4513    0.5050 C   0  0  0  0  0  0  0  0  0  0  0  0
   -2.4008   -1.5584   -0.1646 C   0  0  0  0  0  0  0  0  0  0  0  0
   -2.0821   -0.2252   -0.7118 C   0  0  0  0  0  0  0  0  0  0  0  0
   -0.9973    0.3930   -0.2810 C   0  0  0  0  0  0  0  0  0  0  0  0
   -0.6740    1.6944   -0.8062 C   0  0  0  0  0  0  0  0  0  0  0  0
   -1.7891    2.5196   -2.1037 Br  0  0  0  0  0  0  0  0  0  0  0  0
    0.4285    2.2784   -0.3425 C   0  0  0  0  0  0  0  0  0  0  0  0
    0.7326    3.5300   -0.8526 O   0  0  0  0  0  0  0  0  0  0  0  0
    1.6774    4.3299   -0.1822 C   0  0  0  0  0  0  0  0  0  0  0  0
    1.3013    1.6420    0.6673 C   0  0  0  0  0  0  0  0  0  0  0  0
    2.7068    1.4358    0.1570 C   0  0  0  0  0  0  0  0  0  0  0  0
    2.7821    0.5649   -1.0538 C   0  0  0  0  0  0  0  0  0  0  0  0
    2.2336   -0.8240   -0.8161 C   0  0  0  0  0  0  0  0  0  0  0  0
    2.9689   -1.5496    0.2616 C   0  0  0  0  0  0  0  0  0  0  0  0
    4.4418   -1.7140   -0.0693 C   0  0  0  0  0  0  0  0  0  0  0  0
    5.1249   -2.3828    0.9218 O   0  0  0  0  0  1  0  0  0  0  0  0
  2  1  1  1
  2  3  1  0
  2  4  1  0
  4  5  1  0
  5  6  1  0
  6  7  2  3
  7  8  1  0
  8  9  1  0
  8 10  2  3
 10 11  1  0
 11 12  1  0
 10 13  1  0
 13 14  1  0
 14 15  1  0
 15 16  1  0
 16 17  1  0
 17 18  1  0
 18 19  1  0
M  CHG  2   1  -1  19  -1
M  END
>  <fragInfo>  (1) 
1 2 3
4
5
6 7
8 9 10
11 12
13
14
15
16
17
18 19


>  <torsionInfo>  (1) 
2 4 0 1
4 5 1 2
5 6 2 3
7 8 3 4
10 11 4 5
10 13 4 6
13 14 6 7
14 15 7 8
15 16 8 9
16 17 9 10
17 18 10 11


>  <atomInfo>  (1) 
1  -0.8312856OA
2  -0.0221938C 
3  -0.4102524OA
4  -0.0388300C 
5  -0.0336004C 
6  -0.0832456C 
7  -0.0485735C 
8  0.05489116C 
9  -0.0471770Br
10 0.10963891C 
11 -0.4999312OA
12 0.07707221C 
13 0.00607714C 
14 -0.0461927C 
15 -0.0529215C 
16 -0.0545728C 
17 -0.0687634C 
18 -0.1399576C 
19 -0.8544378OA


$$$$
