
     RDKit          3D

 16 16  0  0  0  0  0  0  0  0999 V2000
   -2.0924   -0.3695   -2.2729 O   0  0  0  0  0  0  0  0  0  0  0  0
   -2.5998    0.6620   -1.7735 C   0  0  0  0  0  0  0  0  0  0  0  0
   -2.1746    1.0902   -0.4218 C   0  0  0  0  0  0  0  0  0  0  0  0
   -2.7217    2.2228    0.1446 C   0  0  0  0  0  0  0  0  0  0  0  0
   -2.3026    2.5913    1.4033 C   0  0  0  0  0  0  0  0  0  0  0  0
   -1.3647    1.8922    2.1334 C   0  0  0  0  0  0  0  0  0  0  0  0
   -0.8388    0.7565    1.5245 C   0  0  0  0  0  0  0  0  0  0  0  0
   -1.2324    0.3547    0.2664 C   0  0  0  0  0  0  0  0  0  0  0  0
   -0.6960   -0.7834   -0.3271 O   0  0  0  0  0  0  0  0  0  0  0  0
    0.2517   -1.5598    0.3150 C   0  0  0  0  0  0  0  0  0  0  0  0
   -0.1337   -2.6415    1.2868 C   0  0  0  0  0  0  0  0  0  0  0  0
    1.5347   -1.3709    0.0905 C   0  0  0  0  0  0  0  0  0  0  0  0
    1.9414   -0.3343   -0.8425 C   0  0  0  0  0  0  0  0  0  0  0  0
    3.2130   -0.0841   -1.1204 C   0  0  0  0  0  0  0  0  0  0  0  0
    4.2039   -0.8836   -0.4595 C   0  0  0  0  0  0  0  0  0  0  0  0
    5.0118   -1.5425    0.0788 N   0  0  0  0  0  0  0  0  0  0  0  0
  1  2  2  0
  2  3  1  0
  3  4  2  0
  4  5  1  0
  5  6  2  0
  6  7  1  0
  7  8  2  0
  8  9  1  0
  9 10  1  0
 10 11  1  0
 10 12  2  3
 12 13  1  0
 13 14  2  3
 14 15  1  0
 15 16  3  0
  8  3  1  0
M  END
>  <fragInfo>  (1) 
3 4 5 6 7 8
1 2
9
10 11 12
13 14 15 16


>  <torsionInfo>  (1) 
2 3 1 0
8 9 0 2
9 10 2 3
12 13 3 4


>  <atomInfo>  (1) 
1  -0.2977460OA
2  0.15329981C 
3  0.05695860A 
4  -0.0479302A 
5  -0.0612832A 
6  -0.0585143A 
7  -0.0185742A 
8  0.13691450A 
9  -0.4612816OA
10 0.10102948C 
11 -0.0061555C 
12 -0.0232269C 
13 -0.0484261C 
14 0.01581179C 
15 0.09115426C 
16 -0.1930989NA


$$$$
