
     RDKit          3D

 46 50  0  0  0  0  0  0  0  0999 V2000
   -2.7570   -0.6248    0.2553 C   0  0  2  0  0  0  0  0  0  0  0  0
   -2.5296   -1.3681    1.3933 O   0  0  0  0  0  0  0  0  0  0  0  0
   -1.8209   -0.5732    2.2941 C   0  0  0  0  0  0  0  0  0  0  0  0
   -0.3723   -0.7036    1.9612 C   0  0  2  0  0  0  0  0  0  0  0  0
    0.1355   -1.8839    2.4936 O   0  0  0  0  0  0  0  0  0  0  0  0
    0.4769    0.4305    2.4621 C   0  0  2  0  0  0  0  0  0  0  0  0
   -0.0443    1.6647    2.1409 O   0  0  0  0  0  0  0  0  0  0  0  0
    1.8672    0.2339    1.8405 C   0  0  1  0  0  0  0  0  0  0  0  0
    2.0717   -1.1311    1.7751 O   0  0  0  0  0  0  0  0  0  0  0  0
    1.7401    0.7704    0.4112 C   0  0  1  0  0  0  0  0  0  0  0  0
    1.5519    2.2223    0.5728 N   0  0  0  0  0  0  0  0  0  0  0  0
    2.8174    2.6909    1.0546 C   0  0  0  0  0  3  0  0  0  0  0  0
    3.8760    1.7227    0.5480 C   0  0  0  0  0  0  0  0  0  0  0  0
    3.0934    0.7609   -0.2791 C   0  0  2  0  0  0  0  0  0  0  0  0
    2.8778    1.3943   -1.6462 C   0  0  0  0  0  0  0  0  0  0  0  0
    4.0937    1.2801   -2.5173 C   0  0  0  0  0  0  0  0  0  0  0  0
    5.1875    1.7742   -1.7918 O   0  0  0  0  0  0  0  0  0  0  0  0
    6.1254    0.7477   -1.7386 C   0  0  0  0  0  0  0  0  0  0  0  0
    6.9197    0.8132   -0.5346 N   0  0  0  0  0  0  0  0  0  0  0  0
    7.1520   -0.5318   -0.0395 C   0  0  0  0  0  3  0  0  0  0  0  0
    6.5893   -0.6722    1.2316 O   0  0  0  0  0  0  0  0  0  0  0  0
    5.3138   -0.0756    1.1501 C   0  0  0  0  0  0  0  0  0  0  0  0
    4.4487   -1.0134    0.6445 O   0  0  0  0  0  0  0  0  0  0  0  0
    3.6844   -0.5914   -0.4140 C   0  0  1  0  0  0  0  0  0  0  0  0
    2.7488   -1.5481   -0.7372 O   0  0  0  0  0  0  0  0  0  0  0  0
    1.9577   -1.1397   -1.7189 O   0  0  0  0  0  0  0  0  0  0  0  0
    0.6840   -1.3376   -1.3068 N   0  0  0  0  0  3  0  0  0  0  0  0
    0.4215   -2.6680   -1.3839 O   0  0  0  0  0  0  0  0  0  0  0  0
   -0.1727   -0.6622   -2.2794 C   0  0  0  0  0  3  0  0  0  0  0  0
   -1.4748   -0.7104   -1.7655 O   0  0  0  0  0  0  0  0  0  0  0  0
   -1.5226   -0.2064   -0.4658 C   0  0  1  0  0  0  0  0  0  0  0  0
   -1.9646    1.1274   -0.5246 O   0  0  0  0  0  0  0  0  0  0  0  0
   -2.7744    0.8419    0.5670 C   0  0  1  0  0  0  0  0  0  0  0  0
   -4.0306    1.4015    0.5624 O   0  0  0  0  0  0  0  0  0  0  0  0
   -4.1356    2.2956   -0.4961 C   0  0  2  0  0  0  0  0  0  0  0  0
   -3.9212    3.5973   -0.1205 O   0  0  0  0  0  0  0  0  0  0  0  0
   -5.5025    2.0743   -1.1219 C   0  0  2  0  0  0  0  0  0  0  0  0
   -6.4847    2.7319   -0.4235 F   0  0  0  0  0  0  0  0  0  0  0  0
   -5.7260    0.5581   -1.0907 C   0  0  0  0  0  0  0  0  0  0  0  0
   -4.4467   -0.0790   -1.5192 C   0  0  2  0  0  0  0  0  0  0  0  0
   -4.6676   -0.7060   -2.7574 O   0  0  0  0  0  0  0  0  0  0  0  0
   -3.8966   -1.0880   -0.5860 C   0  0  2  0  0  0  0  0  0  0  0  0
   -4.8236   -1.7293    0.1997 O   0  0  0  0  0  0  0  0  0  0  0  0
   -4.1676   -2.8295    0.7966 C   0  0  2  0  0  0  0  0  0  0  0  0
   -3.5569   -3.7178   -0.2730 C   0  0  0  0  0  2  0  0  0  0  0  0
   -5.0418   -3.5426    1.6179 O   0  0  0  0  0  0  0  0  0  0  0  0
  1  2  1  1
  2  3  1  0
  3  4  1  0
  4  5  1  1
  4  6  1  0
  6  7  1  6
  6  8  1  0
  8  9  1  6
  8 10  1  0
 10 11  1  1
 11 12  1  0
 12 13  1  0
 14 13  1  1
 14 15  1  0
 15 16  1  0
 16 17  1  0
 17 18  1  0
 18 19  1  0
 19 20  1  0
 20 21  1  0
 21 22  1  0
 22 23  1  0
 24 23  1  1
 24 25  1  0
 25 26  1  0
 26 27  1  0
 27 28  1  0
 27 29  1  0
 29 30  1  0
 31 30  1  6
 31 32  1  0
 33 32  1  6
 33 34  1  0
 34 35  1  0
 35 36  1  1
 35 37  1  0
 37 38  1  1
 37 39  1  0
 39 40  1  0
 40 41  1  6
 40 42  1  0
 42 43  1  1
 43 44  1  0
 44 45  1  6
 44 46  1  0
 31  1  1  0
 33  1  1  0
 42  1  1  0
 14 10  1  0
 24 14  1  0
M  CHG  1  27   1
M  RAD  5  12   2  20   2  27   2  29   2  45   3
M  END
>  <fragInfo>  (1) 
1 2 3 4 5 6 7 8 9 10 11 12 13 14 15 16 17 18 19 20 21 22 23 24 25 26 27 28 29 30 31 32 33 34 35 36 37 38 39 40 41 42
43
44 45 46


>  <torsionInfo>  (1) 
42 43 0 1
43 44 1 2


>  <atomInfo>  (1) 
1  0.19865858C 
2  -0.3590240OA
3  0.07663219C 
4  0.10579085C 
5  -0.3879039OA
6  0.10950632C 
7  -0.3875565OA
8  0.09850474C 
9  -0.3886620OA
10 0.04656947C 
11 -0.3063313NA
12 0.02328127C 
13 -0.0238593C 
14 0.04638032C 
15 -0.0171874C 
16 0.04911821C 
17 -0.3661988OA
18 0.09853710C 
19 -0.2658683NA
20 0.15241549C 
21 -0.3329115OA
22 0.15187566C 
23 -0.3225138OA
24 0.20700981C 
25 -0.1438543OA
26 0.07071282OA
27 0.23472111N 
28 -0.1186384OA
29 0.40967846C 
30 -0.2791983OA
31 0.20403356C 
32 -0.3165780OA
33 0.20012818C 
34 -0.3173869OA
35 0.18903690C 
36 -0.3654955OA
37 0.15321913C 
38 -0.2417806F 
39 0.01229223C 
40 0.08651051C 
41 -0.3901789OA
42 0.12565510C 
43 -0.3431936OA
44 0.15845039C 
45 0.02602755C 
46 -0.3676886OA


$$$$
