
     RDKit          3D

 47 49  0  0  0  0  0  0  0  0999 V2000
   -1.7532    3.3516    0.2719 C   0  0  2  0  0  0  0  0  0  0  0  0
   -0.4499    2.8709    0.0268 O   0  0  0  0  0  0  0  0  0  0  0  0
   -0.1056    2.0373    1.0884 C   0  0  0  0  0  3  0  0  0  0  0  0
    0.6541    0.9860    0.5280 O   0  0  0  0  0  0  0  0  0  0  0  0
    2.0072    1.3448    0.5092 C   0  0  2  0  0  0  0  0  0  0  0  0
    2.5269    1.2398   -0.9256 C   0  0  0  0  0  0  0  0  0  0  0  0
    2.6885    0.4157    1.3128 O   0  0  0  0  0  0  0  0  0  0  0  0
    2.9249   -0.7546    0.5872 C   0  0  1  0  0  0  0  0  0  0  0  0
    1.7481   -1.0001   -0.3636 C   0  0  0  0  0  3  0  0  0  0  0  0
    1.6887   -2.4639   -0.7270 C   0  0  0  0  0  0  0  0  0  0  0  0
    0.8084   -3.2003    0.2381 C   0  0  2  0  0  0  0  0  0  0  0  0
    1.5712   -3.9383    1.2899 C   0  0  0  0  0  0  0  0  0  0  0  0
    2.4306   -4.8924    0.7940 O   0  0  0  0  0  0  0  0  0  0  0  0
    1.7853   -5.8755    0.0589 C   0  0  0  0  0  3  0  0  0  0  0  0
    1.0491   -6.8308    0.9679 C   0  0  0  0  0  0  0  0  0  0  0  0
   -0.2110   -4.0773   -0.4205 C   0  0  0  0  0  0  0  0  0  0  0  0
   -1.4580   -3.8047    0.1695 O   0  0  0  0  0  0  0  0  0  0  0  0
   -1.8271   -2.6214   -0.2488 O   0  0  0  0  0  0  0  0  0  0  0  0
   -2.2896   -1.8591    0.7328 O   0  0  0  0  0  0  0  0  0  0  0  0
   -2.3825   -0.5569    0.1921 C   0  0  0  0  0  3  0  0  0  0  0  0
   -3.6972   -0.4932   -0.5504 C   0  0  2  0  0  0  0  0  0  0  0  0
   -3.8276    0.7711   -1.2255 N   0  0  0  0  0  2  0  0  0  0  0  0
   -4.7350   -0.7541    0.3263 O   0  0  0  0  0  0  0  0  0  0  0  0
   -5.0447   -2.0310    0.3730 O   0  0  0  0  0  0  0  0  0  0  0  0
   -6.4228   -2.1271    0.4758 C   0  0  0  0  0  3  0  0  0  0  0  0
   -7.0830   -0.8285    0.0857 C   0  0  0  0  0  3  0  0  0  0  0  0
   -6.7969    0.0973    1.0939 O   0  0  0  0  0  0  0  0  0  0  0  0
   -7.0711    1.3774    0.6484 C   0  0  0  0  0  3  0  0  0  0  0  0
   -5.8637    2.2663    0.7325 C   0  0  0  0  0  3  0  0  0  0  0  0
   -4.7964    1.7537    1.6473 C   0  0  0  0  0  3  0  0  0  0  0  0
   -3.6129    1.5578    0.9621 O   0  0  0  0  0  0  0  0  0  0  0  0
   -3.7095    1.9097   -0.3658 C   0  0  1  0  0  0  0  0  0  0  0  0
   -2.6856    2.9007   -0.8173 C   0  0  1  0  0  0  0  0  0  0  0  0
   -3.3382    3.9957   -1.3724 O   0  0  0  0  0  0  0  0  0  0  0  0
   -3.8291    4.7743   -0.3313 C   0  0  0  0  0  3  0  0  0  0  0  0
   -2.8626    5.4927    0.3304 O   0  0  0  0  0  0  0  0  0  0  0  0
   -1.6316    4.8783    0.2110 C   0  0  0  0  0  3  0  0  0  0  0  0
    4.0473   -0.5486   -0.2351 O   0  0  0  0  0  0  0  0  0  0  0  0
    4.2985   -1.6243   -0.9298 O   0  0  0  0  0  0  0  0  0  0  0  0
    5.2136   -2.4352   -0.2797 C   0  0  0  0  0  3  0  0  0  0  0  0
    6.4329   -1.7502   -0.2310 O   0  0  0  0  0  0  0  0  0  0  0  0
    6.2123   -0.4933    0.0241 O   0  0  0  0  0  0  0  0  0  0  0  0
    6.9001    0.3647   -0.8296 C   0  0  0  0  0  3  0  0  0  0  0  0
    7.0104    1.7495   -0.2580 C   0  0  0  0  0  3  0  0  0  0  0  0
    8.2459    1.8751    0.3621 O   0  0  0  0  0  0  0  0  0  0  0  0
    8.8856    2.8544   -0.2254 O   0  0  0  0  0  0  0  0  0  0  0  0
    8.3555    4.0958    0.0770 C   0  0  0  0  0  2  0  0  0  0  0  0
  1  2  1  0
  2  3  1  0
  3  4  1  0
  4  5  1  0
  5  6  1  6
  5  7  1  0
  7  8  1  0
  8  9  1  0
  9 10  1  0
 10 11  1  0
 11 12  1  1
 12 13  1  0
 13 14  1  0
 14 15  1  0
 11 16  1  0
 16 17  1  0
 17 18  1  0
 18 19  1  0
 19 20  1  0
 21 20  1  1
 21 22  1  0
 21 23  1  0
 23 24  1  0
 24 25  1  0
 25 26  1  0
 26 27  1  0
 27 28  1  0
 28 29  1  0
 29 30  1  0
 30 31  1  0
 32 31  1  1
 32 33  1  0
 33 34  1  1
 34 35  1  0
 35 36  1  0
 36 37  1  0
  8 38  1  6
 38 39  1  0
 39 40  1  0
 40 41  1  0
 41 42  1  0
 42 43  1  0
 43 44  1  0
 44 45  1  0
 45 46  1  0
 46 47  1  0
 33  1  1  0
  1 37  1  6
 32 22  1  0
M  RAD  8   3   2   9   2  14   2  20   2  22   3  25   2  26   2  28   2
M  RAD  8  29   2  30   2  35   2  37   2  40   2  43   2  44   2  47   3
M  CHG  1  22   1
M  END
>  <fragInfo>  (1) 
1 2 3 4 5 6 7 8 9 10 11 16 17 18 19 20 21 22 23 24 25 26 27 28 29 30 31 32 33 34 35 36 37
12
13
14 15
38
39
40
41
42
43
44
45
46 47


>  <torsionInfo>  (1) 
8 38 0 4
11 12 0 1
12 13 1 2
13 14 2 3
38 39 4 5
39 40 5 6
40 41 6 7
41 42 7 8
42 43 8 9
43 44 9 10
44 45 10 11
45 46 11 12


>  <atomInfo>  (1) 
1  0.12503753C 
2  -0.3385394OA
3  0.21198234C 
4  -0.3186188OA
5  0.16105073C 
6  -0.0131961C 
7  -0.3206323OA
8  0.19705576C 
9  0.02131796C 
10 -0.0376293C 
11 0.00945515C 
12 0.05221331C 
13 -0.3754426OA
14 0.08055306C 
15 -0.0361162C 
16 0.09036236C 
17 -0.2057840OA
18 -0.0673640OA
19 -0.1896215OA
20 0.22565337C 
21 0.35745208C 
22 0.13445906N 
23 -0.1607520OA
24 -0.2213701OA
25 0.15382728C 
26 0.11905471C 
27 -0.3660850OA
28 0.09053104C 
29 0.02480368C 
30 0.09699027C 
31 -0.3123449OA
32 0.32789241C 
33 0.17880540C 
34 -0.3320312OA
35 0.21012545C 
36 -0.3388661OA
37 0.11896163C 
38 -0.2010652OA
39 -0.1926962OA
40 0.27995742C 
41 -0.1949138OA
42 -0.2243363OA
43 0.15711964C 
44 0.15699854C 
45 -0.2268564OA
46 -0.2268564OA
47 0.15699632C 


$$$$
