
     RDKit          3D

 17 17  0  0  0  0  0  0  0  0999 V2000
   -1.1730   -1.6278   -1.7271 C   0  0  0  0  0  0  0  0  0  0  0  0
   -1.4702   -0.3872   -0.9267 C   0  0  1  0  0  0  0  0  0  0  0  0
   -2.6872   -0.6066   -0.0174 C   0  0  0  0  0  0  0  0  0  0  0  0
   -3.2023    0.8121    0.2586 C   0  0  2  0  0  0  0  0  0  0  0  0
   -3.4664    1.3277   -1.0344 O   0  0  0  0  0  0  0  0  0  0  0  0
   -2.0421    1.5761    0.8869 C   0  0  2  0  0  0  0  0  0  0  0  0
   -1.6929    2.7039    0.1685 O   0  0  0  0  0  0  0  0  0  0  0  0
   -0.8736    0.6788    1.2043 C   0  0  1  0  0  0  0  0  0  0  0  0
   -1.4070   -0.4215    1.9137 O   0  0  0  0  0  0  0  0  0  0  0  0
   -0.3045    0.0771   -0.0857 C   0  0  1  0  0  0  0  0  0  0  0  0
    0.4523   -1.0919    0.3072 N   0  0  0  0  0  0  0  0  0  0  0  0
    1.0069   -1.7819   -0.8303 C   0  0  0  0  0  3  0  0  0  0  0  0
    2.3669   -2.3114   -0.4933 C   0  0  0  0  0  0  0  0  0  0  0  0
    3.3384   -1.3650   -0.7997 O   0  0  0  0  0  0  0  0  0  0  0  0
    3.1317   -0.1801   -0.0736 C   0  0  0  0  0  0  0  0  0  0  0  0
    4.1272    0.7523   -0.4052 O   0  0  0  0  0  0  0  0  0  0  0  0
    3.8958    1.8455    0.2971 O   0  0  0  0  0  0  0  0  0  0  0  0
  2  1  1  1
  2  3  1  0
  3  4  1  0
  4  5  1  6
  4  6  1  0
  6  7  1  6
  6  8  1  0
  8  9  1  1
  8 10  1  0
 10 11  1  1
 11 12  1  0
 12 13  1  0
 13 14  1  0
 14 15  1  0
 15 16  1  0
 16 17  1  0
 10  2  1  0
M  RAD  1  12   2
M  END
>  <fragInfo>  (1) 
1 2 3 4 5 6 7 8 9 10
11
12
13
14
15
16 17


>  <torsionInfo>  (1) 
10 11 0 1
11 12 1 2
12 13 2 3
13 14 3 4
14 15 4 5
15 16 5 6


>  <atomInfo>  (1) 
1  -0.0608233C 
2  -0.0236270C 
3  -0.0201755C 
4  0.08280077C 
5  -0.3903155OA
6  0.10722524C 
7  -0.3876533OA
8  0.09793062C 
9  -0.3886791OA
10 0.03847605C 
11 -0.3045626NA
12 0.04842968C 
13 0.06656659C 
14 -0.3505465OA
15 0.18005203C 
16 -0.2106916OA
17 -0.2494232OA


$$$$
