
     RDKit          3D

 29 32  0  0  0  0  0  0  0  0999 V2000
    0.8215   -0.0821    0.9822 C   0  0  0  0  0  0  0  0  0  0  0  0
    0.4056    1.0126    1.8132 C   0  0  0  0  0  0  0  0  0  0  0  0
    1.6566    1.5698    2.5146 C   0  0  0  0  0  0  0  0  0  0  0  0
    2.8523    1.2983    1.5933 C   0  0  0  0  0  0  0  0  0  0  0  0
    3.1543   -0.1408    1.4247 C   0  0  0  0  0  0  0  0  0  0  0  0
    3.5064   -0.5930    0.0797 C   0  0  1  0  0  0  0  0  0  0  0  0
    3.3272   -2.0144   -0.2471 C   0  0  0  0  0  0  0  0  0  0  0  0
    2.5361   -2.8674    0.6392 C   0  0  0  0  0  0  0  0  0  0  0  0
    1.2742   -3.1877    0.6065 C   0  0  0  0  0  0  0  0  0  0  0  0
    0.1974   -2.8425   -0.2826 C   0  0  1  0  0  0  0  0  0  0  0  0
   -0.5583   -4.0087   -0.5454 O   0  0  0  0  0  0  0  0  0  0  0  0
   -0.8380   -1.8191    0.2205 C   0  0  0  0  0  0  0  0  0  0  0  0
   -0.7622   -0.6938   -0.7137 C   0  0  2  0  0  0  0  0  0  0  0  0
    0.6742   -0.1628   -0.4383 C   0  0  2  0  0  0  0  0  0  0  0  0
    1.4620   -1.0372   -1.2949 C   0  0  0  0  0  0  0  0  0  0  0  0
    2.5433   -0.3605   -2.1225 C   0  0  0  0  0  0  0  0  0  0  0  0
    3.3250    0.3986   -1.0338 C   0  0  1  0  0  0  0  0  0  0  0  0
    2.5481    1.6170   -0.7424 C   0  0  0  0  0  0  0  0  0  0  0  0
    1.5898    2.0750   -1.8531 C   0  0  0  0  0  0  0  0  0  0  0  0
    0.1941    2.3289   -1.2684 C   0  0  1  0  0  0  0  0  0  0  0  0
   -0.1109    3.6879   -1.2779 O   0  0  0  0  0  0  0  0  0  0  0  0
   -0.8802    1.4434   -1.7144 C   0  0  0  0  0  0  0  0  0  0  0  0
   -1.5105    0.5500   -0.6151 C   0  0  1  0  0  0  0  0  0  0  0  0
   -2.9977    0.4320   -0.8534 C   0  0  1  0  0  0  0  0  0  0  0  0
   -3.6066   -0.5097    0.1620 C   0  0  0  0  0  0  0  0  0  0  0  0
   -3.7146    1.5680   -0.1589 C   0  0  0  0  0  0  0  0  0  0  0  0
   -4.6009    0.5661    0.5881 C   0  0  1  0  0  0  0  0  0  0  0  0
   -5.8160    0.3815   -0.0640 O   0  0  0  0  0  0  0  0  0  0  0  0
   -6.6720    1.3906    0.3677 C   0  0  0  0  0  0  0  0  0  0  0  0
  1  2  1  0
  2  3  1  0
  3  4  1  0
  4  5  1  0
  6  5  1  1
  6  7  1  0
  7  8  1  0
  8  9  2  3
  9 10  1  0
 10 11  1  1
 10 12  1  0
 13 12  1  1
 13 14  1  0
 14 15  1  0
 15 16  1  0
 16 17  1  0
 17 18  1  1
 18 19  1  0
 19 20  1  0
 20 21  1  6
 20 22  1  0
 23 22  1  6
 23 24  1  0
 24 25  1  1
 24 26  1  0
 26 27  1  0
 27 28  1  6
 28 29  1  0
 14  1  1  1
 17  6  1  0
 23 13  1  0
 27 25  1  0
M  END
>  <fragInfo>  (1) 
1 2 3 4 5 6 7 8 9 10 11 12 13 14 15 16 17 18 19 20 21 22 23
24 25 26 27
28 29


>  <torsionInfo>  (1) 
23 24 0 1
27 28 1 2


>  <atomInfo>  (1) 
1  -0.0501706C 
2  -0.0530316C 
3  -0.0532851C 
4  -0.0530207C 
5  -0.0498868C 
6  -0.0351165C 
7  -0.0318619C 
8  -0.0857022C 
9  -0.0601941C 
10 0.07232999C 
11 -0.3890389OA
12 -0.0199707C 
13 -0.0326083C 
14 -0.0381907C 
15 -0.0498966C 
16 -0.0498961C 
17 -0.0381839C 
18 -0.0477135C 
19 -0.0267236C 
20 0.05427976C 
21 -0.3931199OA
22 -0.0236150C 
23 -0.0327250C 
24 -0.0332853C 
25 -0.0235172C 
26 -0.0235172C 
27 0.05764677C 
28 -0.3814383OA
29 0.03583577C 


$$$$
