
     RDKit          3D

 14 13  0  0  0  0  0  0  0  0999 V2000
   -3.7170    1.9774   -0.8056 O   0  0  0  0  0  0  0  0  0  0  0  0
   -3.1934    0.7170   -0.5967 C   0  0  0  0  0  0  0  0  0  0  0  0
   -2.0995    0.8084    0.4239 C   0  0  0  0  0  3  0  0  0  0  0  0
   -1.4860   -0.4682    0.7115 N   0  0  0  0  0  0  0  0  0  0  0  0
   -0.6868   -0.9388   -0.4081 C   0  0  2  0  0  0  0  0  0  0  0  0
   -0.0992   -2.2881    0.0228 C   0  0  0  0  0  0  0  0  0  0  0  0
   -1.1120   -3.2039    0.3165 O   0  0  0  0  0  0  0  0  0  0  0  0
    0.4734   -0.0334   -0.6998 C   0  0  1  0  0  0  0  0  0  0  0  0
    0.1239    1.2519   -1.0203 O   0  0  0  0  0  0  0  0  0  0  0  0
    1.5436   -0.1311    0.3388 C   0  0  2  0  0  0  0  0  0  0  0  0
    1.1695    0.4604    1.5262 O   0  0  0  0  0  0  0  0  0  0  0  0
    2.8646    0.4108   -0.1025 C   0  0  1  0  0  0  0  0  0  0  0  0
    3.3902   -0.3318   -1.3240 C   0  0  0  0  0  0  0  0  0  0  0  0
    2.8289    1.7692   -0.4081 O   0  0  0  0  0  1  0  0  0  0  0  0
  1  2  1  0
  2  3  1  0
  3  4  1  0
  4  5  1  0
  5  6  1  1
  6  7  1  0
  5  8  1  0
  8  9  1  1
  8 10  1  0
 10 11  1  1
 10 12  1  0
 12 13  1  6
 12 14  1  0
M  CHG  1  14  -1
M  RAD  1   3   2
M  END
>  <fragInfo>  (1) 
12 13 14
1 2
3
4
5
6 7
8 9
10 11


>  <torsionInfo>  (1) 
10 12 7 0
2 3 1 2
3 4 2 3
4 5 3 4
5 6 4 5
5 8 4 6
8 10 6 7


>  <atomInfo>  (1) 
1  -0.3946905OA
2  0.06004187C 
3  0.04808498C 
4  -0.3028781NA
5  0.05912224C 
6  0.06106247C 
7  -0.3946489OA
8  0.09628288C 
9  -0.3887472OA
10 0.06886166C 
11 -0.3915090OA
12 -0.1002143C 
13 -0.0755060C 
14 -0.8502468OA


$$$$
