
     RDKit          3D

 12 12  0  0  0  0  0  0  0  0999 V2000
   -0.5554   -1.0270   -0.9671 C   0  0  0  0  0  0  0  0  0  0  0  0
   -1.8775   -1.5220   -0.9441 O   0  0  0  0  0  0  0  0  0  0  0  0
   -2.4914   -0.9325    0.1853 C   0  0  0  0  0  3  0  0  0  0  0  0
   -2.5034    0.4215   -0.0392 O   0  0  0  0  0  0  0  0  0  0  0  0
   -1.5670    1.1475    0.6395 C   0  0  2  0  0  0  0  0  0  0  0  0
   -1.1648    2.3345   -0.2072 C   0  0  0  0  0  0  0  0  0  0  0  0
   -0.3530    0.4227    1.0794 C   0  0  0  0  0  3  0  0  0  0  0  0
   -0.1338   -0.9198    0.4825 C   0  0  2  0  0  0  0  0  0  0  0  0
    1.3360   -1.2775    0.6576 C   0  0  0  0  0  3  0  0  0  0  0  0
    2.2087   -0.3530   -0.1482 C   0  0  0  0  0  0  0  0  0  0  0  0
    3.0844    0.3734    0.5360 C   0  0  0  0  0  0  0  0  0  0  0  0
    4.0172    1.3322   -0.1062 C   0  0  0  0  0  0  0  0  0  0  0  0
  1  2  1  0
  2  3  1  0
  3  4  1  0
  4  5  1  0
  5  6  1  6
  5  7  1  0
  7  8  1  0
  8  9  1  6
  9 10  1  0
 10 11  2  3
 11 12  1  0
  8  1  1  0
M  RAD  3   3   2   7   2   9   2
M  END
>  <fragInfo>  (1) 
1 2 3 4 5 6 7 8
9
10 11 12


>  <torsionInfo>  (1) 
8 9 0 1
9 10 1 2


>  <atomInfo>  (1) 
1  0.05373673C 
2  -0.3476417OA
3  0.20922365C 
4  -0.3445989OA
5  0.06161258C 
6  -0.0382518C 
7  -0.0038486C 
8  -0.0051736C 
9  -0.0112910C 
10 -0.0847230C 
11 -0.0913511C 
12 -0.0469806C 


$$$$
