
     RDKit          3D

 67 73  0  0  0  0  0  0  0  0999 V2000
   -0.3005   -1.9105    0.7503 C   0  0  0  0  0  0  0  0  0  0  0  0
   -0.7606   -0.5402    1.1157 C   0  0  2  0  0  0  0  0  0  0  0  0
   -1.0648    0.3479   -0.0400 C   0  0  0  0  0  0  0  0  0  0  0  0
    0.0178    0.1072    2.2133 C   0  0  0  0  0  0  0  0  0  0  0  0
   -0.7581   -0.0410    3.5041 C   0  0  0  0  0  0  0  0  0  0  0  0
   -0.8708    1.2439    4.2578 C   0  0  0  0  0  0  0  0  0  0  0  0
   -2.1776    1.9526    4.0733 C   0  0  1  0  0  0  0  0  0  0  0  0
   -3.3289    1.3028    4.7758 C   0  0  0  0  0  0  0  0  0  0  0  0
   -2.0839    3.4269    4.3041 C   0  0  0  0  0  3  0  0  0  0  0  0
   -3.0028    4.2239    3.4263 C   0  0  0  0  0  0  0  0  0  0  0  0
   -2.2698    5.3563    2.7364 C   0  0  0  0  0  0  0  0  0  0  0  0
   -1.1999    4.8047    1.8135 C   0  0  1  0  0  0  0  0  0  0  0  0
   -1.4617    3.3192    1.6295 C   0  0  0  0  0  0  0  0  0  0  0  0
   -1.3065    5.5286    0.5028 C   0  0  0  0  0  0  0  0  0  0  0  0
   -0.6315    4.8277   -0.6259 C   0  0  1  0  0  0  0  0  0  0  0  0
    0.6783    5.1329   -0.7974 F   0  0  0  0  0  0  0  0  0  0  0  0
   -0.9437    3.3584   -0.7100 C   0  0  1  0  0  0  0  0  0  0  0  0
   -1.8576    3.1001   -1.8215 C   0  0  2  0  0  0  0  0  0  0  0  0
   -3.2990    3.0022   -1.5112 C   0  0  0  0  0  0  0  0  0  0  0  0
   -3.7607    1.7531   -1.1892 O   0  0  0  0  0  0  0  0  0  0  0  0
   -4.2188    1.6098    0.0959 C   0  0  0  0  0  0  0  0  0  0  0  0
   -4.3356    0.2385    0.3524 O   0  0  0  0  0  0  0  0  0  0  0  0
   -4.2619   -0.0460    1.7156 C   0  0  0  0  0  0  0  0  0  0  0  0
   -4.4585   -1.5447    1.8558 C   0  0  0  0  0  3  0  0  0  0  0  0
   -3.1726   -2.1510    2.3731 C   0  0  0  0  0  0  0  0  0  0  0  0
   -3.0437   -3.4908    2.0711 O   0  0  0  0  0  0  0  0  0  0  0  0
   -1.8606   -3.7742    1.3883 C   0  0  2  0  0  0  0  0  0  0  0  0
   -0.7423   -2.8786    1.8130 C   0  0  1  0  0  0  0  0  0  0  0  0
    0.6099   -3.7829    2.5672 S   0  0  0  0  0  0  0  0  0  0  0  0
    2.5055   -2.9887    2.0087 S   0  0  0  0  0  2  0  0  0  0  0  0
    3.6839   -4.3345    1.7621 C   0  0  0  0  0  0  0  0  0  0  0  0
    4.7682   -3.9503    0.7845 C   0  0  0  0  0  0  0  0  0  0  0  0
    4.8979   -2.4620    0.6565 C   0  0  0  0  0  0  0  0  0  0  0  0
    6.2921   -2.0402    1.0961 C   0  0  1  0  0  0  0  0  0  0  0  0
    7.1934   -3.2530    0.9060 C   0  0  0  0  0  0  0  0  0  0  0  0
    6.8093   -0.8820    0.2533 C   0  0  0  0  0  0  0  0  0  0  0  0
    5.7997    0.2363    0.3762 C   0  0  1  0  0  0  0  0  0  0  0  0
    6.1106    1.2665    1.7719 S   0  0  0  0  0  1  0  0  0  0  0  0
    5.6355    1.0065   -0.9017 C   0  0  2  0  0  0  0  0  0  0  0  0
    6.8265    0.8435   -1.8265 C   0  0  0  0  0  3  0  0  0  0  0  0
    6.7731    2.0530   -2.7277 C   0  0  0  0  0  0  0  0  0  0  0  0
    5.8199    3.0277   -2.0903 C   0  0  0  0  0  3  0  0  0  0  0  0
    5.6251    2.5060   -0.6812 C   0  0  1  0  0  0  0  0  0  0  0  0
    4.3639    2.9977   -0.0509 C   0  0  0  0  0  0  0  0  0  0  0  0
    2.9175    2.1607   -0.6422 S   0  0  0  0  0  3  0  0  0  0  0  0
    2.8043    0.6329    0.0614 O   0  0  0  0  0  0  0  0  0  0  0  0
    1.5020    3.1448   -0.1761 C   0  0  0  0  0  0  0  0  0  0  0  0
    0.2251    2.4723   -0.5596 C   0  0  2  0  0  0  0  0  0  0  0  0
    0.4389    1.4813   -1.6462 C   0  0  0  0  0  3  0  0  0  0  0  0
   -0.1624    0.1603   -1.2220 C   0  0  2  0  0  0  0  0  0  0  0  0
   -1.0243   -0.3377   -2.3799 C   0  0  2  0  0  0  0  0  0  0  0  0
   -0.2392   -1.2650   -3.2779 C   0  0  0  0  0  0  0  0  0  0  0  0
   -0.9477   -2.5772   -3.3503 C   0  0  1  0  0  0  0  0  0  0  0  0
   -1.5122   -2.9707   -5.0257 S   0  0  0  0  0  0  0  0  0  0  0  0
   -0.1793   -3.7171   -2.7322 C   0  0  0  0  0  0  0  0  0  0  0  0
   -1.1942   -4.7375   -2.2383 C   0  0  0  0  0  0  0  0  0  0  0  0
   -1.1713   -4.8004   -0.7266 C   0  0  1  0  0  0  0  0  0  0  0  0
    0.2401   -4.5553   -0.2817 C   0  0  0  0  0  0  0  0  0  0  0  0
   -2.0886   -3.7938   -0.1012 C   0  0  1  0  0  0  0  0  0  0  0  0
   -3.4190   -4.2093   -0.2961 O   0  0  0  0  0  0  0  0  0  0  0  0
   -3.8836   -3.8521   -1.5613 C   0  0  0  0  0  0  0  0  0  0  0  0
   -3.9452   -2.3241   -1.6772 C   0  0  0  0  0  3  0  0  0  0  0  0
   -4.2927   -2.0126   -3.1215 C   0  0  0  0  0  0  0  0  0  0  0  0
   -4.5165   -0.5537   -3.3497 C   0  0  0  0  0  0  0  0  0  0  0  0
   -3.3052    0.1987   -3.7919 C   0  0  0  0  0  3  0  0  0  0  0  0
   -2.1212    0.6376   -2.9208 S   0  0  2  0  0  0  0  0  0  0  0  0
   -1.3633    2.3147   -2.9603 C   0  0  0  0  0  3  0  0  0  0  0  0
  1  2  1  0
  2  3  1  0
  2  4  1  6
  4  5  1  0
  5  6  1  0
  6  7  1  0
  7  8  1  1
  7  9  1  0
  9 10  1  0
 10 11  1  0
 11 12  1  0
 12 13  1  6
 12 14  1  0
 14 15  1  0
 15 16  1  1
 17 15  1  6
 17 18  1  0
 18 19  1  1
 19 20  1  0
 20 21  1  0
 21 22  1  0
 22 23  1  0
 23 24  1  0
 24 25  1  0
 25 26  1  0
 27 26  1  1
 27 28  1  0
 28 29  1  6
 29 30  1  0
 30 31  1  0
 31 32  1  0
 32 33  1  0
 33 34  1  0
 34 35  1  6
 34 36  1  0
 36 37  1  0
 37 38  1  1
 37 39  1  0
 39 40  1  6
 40 41  1  0
 41 42  1  0
 43 42  1  6
 43 44  1  0
 44 45  1  0
 45 46  1  1
 45 47  1  0
 48 47  1  6
 48 49  1  0
 50 49  1  6
 50 51  1  0
 51 52  1  6
 52 53  1  0
 53 54  1  6
 53 55  1  0
 55 56  1  0
 56 57  1  0
 57 58  1  1
 57 59  1  0
 59 60  1  1
 60 61  1  0
 61 62  1  0
 62 63  1  0
 63 64  1  0
 64 65  1  0
 66 65  1  6
 66 67  1  0
 28  1  1  0
 50  3  1  0
 48 17  1  0
 67 18  1  0
 59 27  1  0
 43 39  1  0
 66 51  1  0
M  RAD  8   9   2  24   2  30   2  38   3  40   2  42   2  49   2  62   2
M  CHG  3  30   1  38   1  45   1
M  RAD  2  65   2  67   2
M  END
>  <fragInfo>  (1) 
1 2 3 4 5 6 7 8 9 10 11 12 13 14 15 16 17 18 19 20 21 22 23 24 25 26 27 28 29 30 31 32 33 34 35 36 37 38 39 40 41 42 43 44 45 46 47 48 49 50 51 52 53 54 55 56 57 58 59 60 61 62 63 64 65 66 67


>  <torsionInfo>  (1) 


>  <atomInfo>  (1) 
1  -0.0311131C 
2  -0.0397905C 
3  -0.0462616C 
4  -0.0503820C 
5  -0.0527772C 
6  -0.0504262C 
7  -0.0411603C 
8  -0.0622342C 
9  -0.0357404C 
10 -0.0496628C 
11 -0.0503225C 
12 -0.0414973C 
13 -0.0624049C 
14 -0.0187952C 
15 0.10401476C 
16 -0.2471493F 
17 0.00383398C 
18 -0.0003678C 
19 0.05367721C 
20 -0.3550880OA
21 0.14623369C 
22 -0.3550385OA
23 0.05489851C 
24 0.01303614C 
25 0.05259435C 
26 -0.3737697OA
27 0.10035889C 
28 0.08826240C 
29 0.15442064SA
30 0.28046069SA
31 0.17073923C 
32 -0.0015580C 
33 -0.0458100C 
34 -0.0389257C 
35 -0.0623112C 
36 0.00849532C 
37 0.23222982C 
38 0.52009570S 
39 0.02801648C 
40 -0.0293287C 
41 -0.0460994C 
42 -0.0299121C 
43 0.01820403C 
44 0.14413376C 
45 0.14378900S 
46 -0.1875754OA
47 0.14405422C 
48 0.01621757C 
49 -0.0261548C 
50 -0.0272173C 
51 -0.0089332C 
52 -0.0308997C 
53 0.00268769C 
54 -0.1758887SA
55 -0.0411472C 
56 -0.0470908C 
57 -0.0151748C 
58 -0.0599277C 
59 0.08744975C 
60 -0.3748935OA
61 0.05025577C 
62 -0.0127543C 
63 -0.0468662C 
64 -0.0415666C 
65 -0.0028339C 
66 -0.2423289S 
67 0.00293402C 


$$$$
