
     RDKit          3D

 12 11  0  0  0  0  0  0  0  0999 V2000
    3.8296   -1.3729    0.6192 O   0  0  0  0  0  0  0  0  0  0  0  0
    3.2013   -1.0813   -0.6035 C   0  0  0  0  0  0  0  0  0  0  0  0
    2.5290    0.2644   -0.5776 C   0  0  0  0  0  3  0  0  0  0  0  0
    1.1418    0.1149   -0.1108 N   0  0  0  0  0  0  0  0  0  0  0  0
    0.4140    1.3138   -0.4831 C   0  0  2  0  0  0  0  0  0  0  0  0
    1.0385    2.4877    0.2284 C   0  0  0  0  0  0  0  0  0  0  0  0
   -0.9044    1.1488   -0.0775 O   0  0  0  0  0  0  0  0  0  0  0  0
   -1.4669    0.0384   -0.7011 C   0  0  1  0  0  0  0  0  0  0  0  0
   -0.7061   -1.0701   -0.3303 O   0  0  0  0  0  0  0  0  0  0  0  0
   -2.8445   -0.1602   -0.1019 C   0  0  2  0  0  0  0  0  0  0  0  0
   -2.6618   -0.3682    1.2621 O   0  0  0  0  0  0  0  0  0  0  0  0
   -3.5706   -1.3151   -0.7678 C   0  0  0  0  0  2  0  0  0  0  0  0
  1  2  1  0
  2  3  1  0
  3  4  1  0
  4  5  1  0
  5  6  1  1
  5  7  1  0
  7  8  1  0
  8  9  1  1
  8 10  1  0
 10 11  1  0
 10 12  1  6
M  RAD  2   3   2  12   3
M  END
>  <fragInfo>  (1) 
10 11 12
1 2
3
4
5 6
7
8 9


>  <torsionInfo>  (1) 
8 10 6 0
2 3 1 2
3 4 2 3
4 5 3 4
5 7 4 5
7 8 5 6


>  <atomInfo>  (1) 
1  -0.3946892OA
2  0.06011303C 
3  0.04988552C 
4  -0.2855217NA
5  0.10843358C 
6  -0.0249209C 
7  -0.3322944OA
8  0.18259226C 
9  -0.3657566OA
10 0.10828297C 
11 -0.3875208OA
12 0.00149098C 


$$$$
