
     RDKit          3D

 24 25  0  0  0  0  0  0  0  0999 V2000
    1.6160   -2.4881    0.1729 C   0  0  0  0  0  0  0  0  0  0  0  0
    2.7473   -1.4872    0.2437 C   0  0  1  0  0  0  0  0  0  0  0  0
    3.1559   -1.0544   -1.1660 C   0  0  0  0  0  0  0  0  0  0  0  0
    4.2766   -0.0541   -1.0004 C   0  0  2  0  0  0  0  0  0  0  0  0
    5.2952   -0.6535   -0.2499 O   0  0  0  0  0  0  0  0  0  0  0  0
    3.7523    1.1794   -0.2831 C   0  0  2  0  0  0  0  0  0  0  0  0
    4.7336    2.1596   -0.2366 O   0  0  0  0  0  0  0  0  0  0  0  0
    3.4240    0.7218    1.1413 C   0  0  1  0  0  0  0  0  0  0  0  0
    2.9156    1.7784    1.9034 O   0  0  0  0  0  0  0  0  0  0  0  0
    2.2908   -0.2823    0.9990 C   0  0  1  0  0  0  0  0  0  0  0  0
    1.2406    0.3863    0.2573 N   0  0  0  0  0  0  0  0  0  0  0  0
    0.0918   -0.4623    0.2293 C   0  0  0  0  0  3  0  0  0  0  0  0
   -1.2094    0.2760    0.2242 C   0  0  2  0  0  0  0  0  0  0  0  0
   -1.2879    1.2776   -0.9062 C   0  0  0  0  0  0  0  0  0  0  0  0
   -1.4607    0.9701    1.4086 O   0  0  0  0  0  0  0  0  0  0  0  0
   -2.8427    1.2686    1.3723 C   0  0  0  0  0  0  0  0  0  0  0  0
   -3.5587    0.0937    1.9636 C   0  0  0  0  0  0  0  0  0  0  0  0
   -4.6150   -0.3685    1.2132 O   0  0  0  0  0  0  0  0  0  0  0  0
   -4.6037    0.0264   -0.1056 C   0  0  1  0  0  0  0  0  0  0  0  0
   -4.7771    1.4053   -0.2672 O   0  0  0  0  0  0  0  0  0  0  0  0
   -3.3752   -0.3869   -0.8618 C   0  0  2  0  0  0  0  0  0  0  0  0
   -3.6818   -1.5004   -1.6400 O   0  0  0  0  0  0  0  0  0  0  0  0
   -2.3153   -0.7738    0.1216 C   0  0  1  0  0  0  0  0  0  0  0  0
   -1.8118   -2.0315   -0.1424 O   0  0  0  0  0  0  0  0  0  0  0  0
  2  1  1  6
  2  3  1  0
  3  4  1  0
  4  5  1  1
  4  6  1  0
  6  7  1  1
  6  8  1  0
  8  9  1  1
  8 10  1  0
 10 11  1  6
 11 12  1  0
 12 13  1  0
 13 14  1  6
 13 15  1  0
 15 16  1  0
 16 17  1  0
 17 18  1  0
 18 19  1  0
 19 20  1  1
 19 21  1  0
 21 22  1  6
 21 23  1  0
 23 24  1  6
 10  2  1  0
 23 13  1  0
M  RAD  1  12   2
M  END
>  <fragInfo>  (1) 
13 14 15 16 17 18 19 20 21 22 23 24
1 2 3 4 5 6 7 8 9 10
11
12


>  <torsionInfo>  (1) 
12 13 3 0
10 11 1 2
11 12 2 3


>  <atomInfo>  (1) 
1  -0.0608233C 
2  -0.0236266C 
3  -0.0201755C 
4  0.08280077C 
5  -0.3903155OA
6  0.10722524C 
7  -0.3876533OA
8  0.09793099C 
9  -0.3886791OA
10 0.03849810C 
11 -0.3039902NA
12 0.05714861C 
13 0.11085599C 
14 -0.0314959C 
15 -0.3683846OA
16 0.07108321C 
17 0.07332519C 
18 -0.3476796OA
19 0.18310918C 
20 -0.3657413OA
21 0.13328079C 
22 -0.3849812OA
23 0.11508308C 
24 -0.3871331OA


$$$$
