
     RDKit          3D

 11 11  0  0  0  0  0  0  0  0999 V2000
    0.9697   -2.5715   -0.2330 C   0  0  0  0  0  0  0  0  0  0  0  0
   -0.3668   -2.5373    0.4845 C   0  0  0  0  0  0  0  0  0  0  0  0
   -0.9328   -1.1804    0.5345 C   0  0  0  0  0  0  0  0  0  0  0  0
   -1.3886   -0.5304   -0.5240 C   0  0  0  0  0  0  0  0  0  0  0  0
   -1.8975    0.7522   -0.3243 O   0  0  0  0  0  0  0  0  0  0  0  0
   -1.5494    1.7172   -1.3192 C   0  0  0  0  0  0  0  0  0  0  0  0
   -0.4610    2.9304   -0.5746 S   0  0  0  0  0  0  0  0  0  0  0  0
    1.0897    2.1586   -0.2267 N   0  0  0  0  0  0  0  0  0  0  0  0
    1.1022    0.8660    0.3632 C   0  0  0  0  0  0  0  0  0  0  0  0
    1.6905   -0.1499   -0.2492 C   0  0  0  0  0  0  0  0  0  0  0  0
    1.7440   -1.4551    0.2706 N   0  0  0  0  0  0  0  0  0  0  0  0
  1  2  1  0
  2  3  1  0
  3  4  2  3
  4  5  1  0
  5  6  1  0
  6  7  1  0
  7  8  1  0
  8  9  1  0
  9 10  2  3
 10 11  1  0
 11  1  1  0
M  END
>  <fragInfo>  (1) 
1 2 3 4 5 6 7 8 9 10 11


>  <torsionInfo>  (1) 


>  <atomInfo>  (1) 
1  0.01773089C 
2  -0.0143096C 
3  -0.0480472C 
4  0.08031742C 
5  -0.4891680OA
6  0.15167639C 
7  -0.0108472SA
8  -0.3322743N 
9  0.02305407C 
10 0.01328892C 
11 -0.3894008N 


$$$$
