
     RDKit          2D

 35 41  0  0  0  0  0  0  0  0999 V2000
   -8.3683    0.2382    0.0000 C   0  0  0  0  0  0  0  0  0  0  0  0
   -9.3415   -0.9032    0.0000 C   0  0  0  0  0  0  0  0  0  0  0  0
   -8.4156   -2.0833    0.0000 N   0  0  0  0  0  0  0  0  0  0  0  0
   -8.7610   -3.5430    0.0000 C   0  0  0  0  0  0  0  0  0  0  0  0
  -10.1176   -4.1831    0.0000 N   0  0  0  0  0  0  0  0  0  0  0  0
  -11.4638   -3.5216    0.0000 C   0  0  0  0  0  0  0  0  0  0  0  0
  -12.6440   -4.4475    0.0000 N   0  0  0  0  0  0  0  0  0  0  0  0
  -11.7860   -2.0566    0.0000 N   0  0  0  0  0  0  0  0  0  0  0  0
  -10.8415   -0.8913    0.0000 C   0  0  0  0  0  0  0  0  0  0  0  0
  -11.5113   -1.3235    0.0000 O   0  0  0  0  0  0  0  0  0  0  0  0
  -10.8534   -2.3912    0.0000 C   0  0  0  0  0  0  0  0  0  0  0  0
   -9.3534   -2.4031    0.0000 C   0  0  0  0  0  0  0  0  0  0  0  0
   -8.3984   -3.5598    0.0000 S   0  0  0  0  0  0  0  0  0  0  0  0
   -6.9233   -3.8320    0.0000 C   0  0  0  0  0  0  0  0  0  0  0  0
   -5.6184   -3.0923    0.0000 C   0  0  0  0  0  0  0  0  0  0  0  0
   -5.2995   -4.5581    0.0000 C   0  0  0  0  0  0  0  0  0  0  0  0
   -4.2388   -5.6187    0.0000 C   0  0  0  0  0  0  0  0  0  0  0  0
   -4.9577   -6.9352    0.0000 Cl  0  0  0  0  0  0  0  0  0  0  0  0
   -2.7731   -5.9376    0.0000 C   0  0  0  0  0  0  0  0  0  0  0  0
   -1.3677   -5.4134    0.0000 C   0  0  0  0  0  0  0  0  0  0  0  0
   -0.4688   -4.2126    0.0000 C   0  0  0  0  0  0  0  0  0  0  0  0
   -0.6810   -2.3972    0.0000 N   0  0  0  0  0  0  0  0  0  0  0  0
   -2.1625   -2.1625    0.0000 C   0  0  0  0  0  0  0  0  0  0  0  0
   -2.3972   -0.6810    0.0000 C   0  0  0  0  0  0  0  0  0  0  0  0
   -3.8933   -0.7880    0.0000 C   0  0  0  0  0  0  0  0  0  0  0  0
   -5.0942   -1.6869    0.0000 C   0  0  0  0  0  0  0  0  0  0  0  0
   -5.5960   -0.2733    0.0000 C   0  0  0  0  0  0  0  0  0  0  0  0
   -6.8890    0.4869    0.0000 C   0  0  0  0  0  0  0  0  0  0  0  0
   -3.3780    0.9420    0.0000 C   0  0  0  0  0  0  0  0  0  0  0  0
   -1.8846    1.0815    0.0000 N   0  0  0  0  0  0  0  0  0  0  0  0
   -0.5943    0.3166    0.0000 C   0  0  0  0  0  0  0  0  0  0  0  0
   -0.0000   -1.0607    0.0000 C   0  0  0  0  0  0  0  0  0  0  0  0
    1.0607    0.0000    0.0000 C   0  0  0  0  0  0  0  0  0  0  0  0
    0.0000    1.0607    0.0000 C   0  0  0  0  0  0  0  0  0  0  0  0
   -1.0607    0.0000    0.0000 C   0  0  0  0  0  0  0  0  0  0  0  0
  1  2  1  0
  2  3  1  0
  3  4  1  0
  4  5  2  0
  5  6  1  0
  6  7  1  0
  6  8  2  0
  8  9  1  0
  9 10  1  0
  9 11  1  0
 11 12  1  0
 12 13  1  0
 13 14  1  0
 14 15  2  3
 15 16  1  0
 16 17  2  3
 17 18  1  0
 17 19  1  0
 19 20  2  0
 20 21  2  0
 21 22  1  0
 22 23  1  0
 23 24  2  0
 24 25  1  0
 25 26  2  3
 26 27  1  0
 27 28  1  0
 28 29  1  0
 29 30  1  0
 30 31  1  0
 31 32  1  0
 32 33  1  0
 33 34  1  0
 34 35  2  0
  1 28  2  3
  9  2  1  0
 12  2  1  0
 26 15  1  0
 32 22  1  0
 35 24  1  0
 35 32  1  0
M  END
>  <fragInfo>  (1) 
1 2 3 4 5 6 7 8 9 10 11 12 13 14 15 16 17 18 19 20 21 22 23 24 25 26 27 28 29 30 31 32 33 34 35


>  <torsionInfo>  (1) 


>  <atomInfo>  (1) 
1  -0.0524091C 
2  0.11902655C 
3  -0.3615335N 
4  0.09283112C 
5  -0.2043366NA
6  0.21911327C 
7  -0.3679600N 
8  -0.2139428NA
9  0.18852066C 
10 -0.3667693OA
11 0.01475667C 
12 0.04518857C 
13 -0.1268799SA
14 -0.0212139C 
15 -0.0142767C 
16 -0.0348130C 
17 0.04893178C 
18 -0.0836429Cl
19 0.00027875C 
20 -0.1012947C 
21 0.04725521C 
22 -0.3351144N 
23 0.01273964C 
24 -0.0037017C 
25 -0.0489914C 
26 -0.0354303C 
27 -0.0047159C 
28 -0.0534600C 
29 0.01694997C 
30 -0.3102819NA
31 0.02373139C 
32 0.08583944C 
33 -0.0050117C 
34 -0.0754734C 
35 -0.0156848C 


$$$$
