
     RDKit          3D

 30 31  0  0  0  0  0  0  0  0999 V2000
   -1.6799   -1.5402   -2.4633 C   0  0  0  0  0  0  0  0  0  0  0  0
   -2.6998   -1.1219   -1.4305 C   0  0  1  0  0  0  0  0  0  0  0  0
   -3.9897   -1.8895   -1.5154 C   0  0  0  0  0  0  0  0  0  0  0  0
   -4.4730   -2.2391   -0.1386 C   0  0  2  0  0  0  0  0  0  0  0  0
   -4.5799   -1.0656    0.5872 O   0  0  0  0  0  0  0  0  0  0  0  0
   -3.5230   -3.2260    0.4655 C   0  0  2  0  0  0  0  0  0  0  0  0
   -3.8243   -3.5855    1.7657 O   0  0  0  0  0  0  0  0  0  0  0  0
   -2.1178   -2.7078    0.4128 C   0  0  1  0  0  0  0  0  0  0  0  0
   -1.3359   -3.4465   -0.4816 O   0  0  0  0  0  0  0  0  0  0  0  0
   -2.1165   -1.2680   -0.0335 C   0  0  1  0  0  0  0  0  0  0  0  0
   -0.7674   -0.7651    0.0590 N   0  0  0  0  0  0  0  0  0  0  0  0
   -0.6710    0.6399   -0.1916 C   0  0  1  0  0  0  0  0  0  0  0  0
   -1.4301    1.4950    0.8008 C   0  0  0  0  0  0  0  0  0  0  0  0
   -1.2112    2.9377    0.3811 C   0  0  2  0  0  0  0  0  0  0  0  0
   -1.9746    3.7739    1.1809 O   0  0  0  0  0  0  0  0  0  0  0  0
   -1.6433    3.1097   -1.0581 C   0  0  0  0  0  0  0  0  0  0  0  0
   -0.9049    2.2981   -1.9188 O   0  0  0  0  0  0  0  0  0  0  0  0
    0.2597    3.2428    0.5572 C   0  0  1  0  0  0  0  0  0  0  0  0
    0.4922    4.2880    1.4356 O   0  0  0  0  0  0  0  0  0  0  0  0
    1.0415    2.0045    0.9546 C   0  0  2  0  0  0  0  0  0  0  0  0
    2.4008    2.3289    0.9249 O   0  0  0  0  0  0  0  0  0  0  0  0
    0.8023    0.9964   -0.1678 C   0  0  1  0  0  0  0  0  0  0  0  0
    1.6033   -0.1213    0.0357 O   0  0  0  0  0  0  0  0  0  0  0  0
    2.8510    0.2854    0.0411 O   0  0  0  0  0  0  0  0  0  0  0  0
    3.2277    0.8143   -1.0846 O   0  0  0  0  0  0  0  0  0  0  0  0
    4.0673   -0.0236   -1.8113 C   0  0  0  0  0  0  0  0  0  0  0  0
    5.2016   -0.2867   -1.0608 O   0  0  0  0  0  0  0  0  0  0  0  0
    4.9186   -0.8750    0.0814 O   0  0  0  0  0  0  0  0  0  0  0  0
    5.5896   -1.9996    0.1609 O   0  0  0  0  0  0  0  0  0  0  0  0
    6.4866   -2.0529   -0.7970 O   0  0  0  0  0  0  0  0  0  0  0  0
  2  1  1  6
  2  3  1  0
  3  4  1  0
  4  5  1  1
  4  6  1  0
  6  7  1  1
  6  8  1  0
  8  9  1  6
  8 10  1  0
 10 11  1  6
 12 11  1  1
 12 13  1  0
 13 14  1  0
 14 15  1  1
 14 16  1  0
 16 17  1  0
 14 18  1  0
 18 19  1  1
 18 20  1  0
 20 21  1  6
 20 22  1  0
 22 23  1  1
 23 24  1  0
 24 25  1  0
 25 26  1  0
 26 27  1  0
 27 28  1  0
 28 29  1  0
 29 30  1  0
 10  2  1  0
 22 12  1  0
M  END
>  <fragInfo>  (1) 
1 2 3 4 5 6 7 8 9 10
11
12 13 14 15 18 19 20 21 22
16 17
23
24
25
26
27
28
29 30


>  <torsionInfo>  (1) 
10 11 0 1
11 12 1 2
14 16 2 3
22 23 2 4
23 24 4 5
24 25 5 6
25 26 6 7
26 27 7 8
27 28 8 9
28 29 9 10


>  <atomInfo>  (1) 
1  -0.0608233C 
2  -0.0236278C 
3  -0.0201755C 
4  0.08280077C 
5  -0.3903155OA
6  0.10722523C 
7  -0.3876533OA
8  0.09792987C 
9  -0.3886791OA
10 0.03843589C 
11 -0.3053956NA
12 0.04231580C 
13 -0.0009393C 
14 0.11761907C 
15 -0.3845999OA
16 0.07461792C 
17 -0.3932744OA
18 0.11355450C 
19 -0.3872026OA
20 0.11373920C 
21 -0.3873862OA
22 0.13982464C 
23 -0.1982174OA
24 -0.0651222OA
25 -0.1740149OA
26 0.22054274C 
27 -0.1716734OA
28 -0.0341857OA
29 -0.0392543OA
30 -0.2187749OA


$$$$
