
     RDKit          3D

 26 26  0  0  0  0  0  0  0  0999 V2000
   -2.2590    1.5672   -0.2880 C   0  0  0  0  0  0  0  0  0  0  0  0
   -2.3159    0.0741   -0.1843 C   0  0  1  0  0  0  0  0  0  0  0  0
   -3.1467   -0.3875    0.9864 C   0  0  0  0  0  0  0  0  0  0  0  0
   -4.5440    0.2023    0.8611 C   0  0  2  0  0  0  0  0  0  0  0  0
   -5.4756   -0.6074    1.5173 O   0  0  0  0  0  0  0  0  0  0  0  0
   -4.9365    0.3964   -0.5862 C   0  0  2  0  0  0  0  0  0  0  0  0
   -6.3059    0.3493   -0.7129 O   0  0  0  0  0  0  0  0  0  0  0  0
   -4.3251   -0.6977   -1.4475 C   0  0  1  0  0  0  0  0  0  0  0  0
   -4.7997   -0.5131   -2.7437 O   0  0  0  0  0  0  0  0  0  0  0  0
   -2.8121   -0.6004   -1.4249 C   0  0  1  0  0  0  0  0  0  0  0  0
   -2.3964   -0.0034   -2.6544 N   0  0  0  0  0  0  0  0  0  0  0  0
   -0.9578   -0.0655   -2.7776 C   0  0  0  0  0  3  0  0  0  0  0  0
   -0.3817   -0.4397   -1.4437 C   0  0  0  0  0  0  0  0  0  0  0  0
    1.1180   -0.5396   -1.4332 C   0  0  1  0  0  0  0  0  0  0  0  0
    1.7815    0.7695   -1.8114 C   0  0  0  0  0  2  0  0  0  0  0  0
    1.5067   -0.9577   -0.0257 C   0  0  0  0  0  0  0  0  0  0  0  0
    1.0586    0.0304    1.0038 C   0  0  0  0  0  0  0  0  0  0  0  0
    1.6033    1.2737    0.7955 O   0  0  0  0  0  0  0  0  0  0  0  0
    3.0007    1.2185    0.8489 C   0  0  1  0  0  0  0  0  0  0  0  0
    3.5508    2.4889    0.6366 O   0  0  0  0  0  0  0  0  0  0  0  0
    3.3690    0.8424    2.2730 C   0  0  1  0  0  0  0  0  0  0  0  0
    2.8516   -0.3764    2.6527 O   0  0  0  0  0  0  0  0  0  0  0  0
    4.8749    0.7560    2.3381 C   0  0  0  0  0  3  0  0  0  0  0  0
    5.4414   -0.2717    1.3950 C   0  0  0  0  0  0  0  0  0  0  0  0
    6.9544   -0.2397    1.5810 C   0  0  0  0  0  3  0  0  0  0  0  0
    7.5452   -1.2618    0.6441 C   0  0  0  0  0  0  0  0  0  0  0  0
  2  1  1  6
  2  3  1  0
  3  4  1  0
  4  5  1  6
  4  6  1  0
  6  7  1  1
  6  8  1  0
  8  9  1  6
  8 10  1  0
 10 11  1  6
 11 12  1  0
 12 13  1  0
 13 14  1  0
 14 15  1  1
 14 16  1  0
 16 17  1  0
 17 18  1  0
 18 19  1  0
 19 20  1  1
 19 21  1  0
 21 22  1  6
 21 23  1  0
 23 24  1  0
 24 25  1  0
 25 26  1  0
 10  2  1  0
M  RAD  4  12   2  15   3  23   2  25   2
M  END
>  <fragInfo>  (1) 
1 2 3 4 5 6 7 8 9 10
11
12
13
14 15
16
17
18
19 20
21 22
23
24
25 26


>  <torsionInfo>  (1) 
10 11 0 1
11 12 1 2
12 13 2 3
13 14 3 4
14 16 4 5
16 17 5 6
17 18 6 7
18 19 7 8
19 21 8 9
21 23 9 10
23 24 10 11
24 25 11 12


>  <atomInfo>  (1) 
1  -0.0608233C 
2  -0.0236285C 
3  -0.0201755C 
4  0.08280077C 
5  -0.3903155OA
6  0.10722522C 
7  -0.3876533OA
8  0.09792913C 
9  -0.3886791OA
10 0.03838908C 
11 -0.3067518NA
12 0.02274695C 
13 -0.0330156C 
14 -0.0342854C 
15 -0.0316520C 
16 -0.0262843C 
17 0.05012787C 
18 -0.3501647OA
19 0.18056535C 
20 -0.3658126OA
21 0.10782340C 
22 -0.3875355OA
23 -0.0044843C 
24 -0.0445682C 
25 -0.0413119C 
26 -0.0622426C 


$$$$
