
     RDKit          3D

 30 30  0  0  0  0  0  0  0  0999 V2000
   -5.0771   -1.3442    0.9203 C   0  0  0  0  0  0  0  0  0  0  0  0
   -6.5409   -1.2901    0.7093 C   0  0  0  0  0  0  0  0  0  0  0  0
   -7.2715   -2.5614    1.0519 C   0  0  0  0  0  0  0  0  0  0  0  0
   -7.2787   -0.0719    0.9160 C   0  0  0  0  0  0  0  0  0  0  0  0
   -7.0835    1.1505    0.2092 C   0  0  0  0  0  0  0  0  0  0  0  0
   -5.8114    1.8721    0.2414 C   0  0  0  0  0  0  0  0  0  0  0  0
   -4.6771    1.0763   -0.3303 C   0  0  1  0  0  0  0  0  0  0  0  0
   -5.0246    0.7464   -1.7769 C   0  0  0  0  0  0  0  0  0  0  0  0
   -3.3934    1.8895   -0.3354 C   0  0  0  0  0  3  0  0  0  0  0  0
   -3.0892    2.2794    1.0907 C   0  0  0  0  0  0  0  0  0  0  0  0
   -2.9025    1.0477    1.9125 C   0  0  0  0  0  0  0  0  0  0  0  0
   -1.7436    0.1980    1.3785 C   0  0  0  0  0  0  0  0  0  0  0  0
   -2.0182   -0.2206   -0.0474 C   0  0  0  0  0  0  0  0  0  0  0  0
   -1.5807   -1.0321    2.2309 C   0  0  0  0  0  0  0  0  0  0  0  0
   -0.5844    0.9752    1.3863 O   0  0  0  0  0  0  0  0  0  0  0  0
    0.4803    0.2334    0.9087 C   0  0  0  0  0  0  0  0  0  0  0  0
    0.7451   -0.9837    1.7295 C   0  0  0  0  0  3  0  0  0  0  0  0
    1.8945   -1.7797    1.2097 C   0  0  0  0  0  0  0  0  0  0  0  0
    3.2078   -1.0836    1.1527 C   0  0  0  0  0  0  0  0  0  0  0  0
    3.1804    0.0891    0.2437 C   0  0  1  0  0  0  0  0  0  0  0  0
    4.4789    0.8415    0.1626 C   0  0  0  0  0  0  0  0  0  0  0  0
    2.4884   -0.0759   -1.0468 C   0  0  0  0  0  0  0  0  0  0  0  0
    2.9293   -1.0928   -1.9952 C   0  0  0  0  0  0  0  0  0  0  0  0
    4.2894   -1.0673   -2.5439 C   0  0  0  0  0  0  0  0  0  0  0  0
    5.4027   -1.1941   -1.5752 C   0  0  1  0  0  0  0  0  0  0  0  0
    5.4248   -2.3488   -0.8332 O   0  0  0  0  0  0  0  0  0  0  0  0
    6.7120   -0.8138   -2.1830 C   0  0  2  0  0  0  0  0  0  0  0  0
    7.9523   -0.8245   -1.5345 C   0  0  0  0  0  0  0  0  0  0  0  0
    7.3496    0.4268   -1.7403 C   0  0  0  0  0  0  0  0  0  0  0  0
    7.5414    1.8862   -1.5118 C   0  0  0  0  0  0  0  0  0  0  0  0
  1  2  1  0
  2  3  1  0
  2  4  1  0
  4  5  1  0
  5  6  1  0
  6  7  1  0
  7  8  1  6
  7  9  1  0
  9 10  1  0
 10 11  1  0
 11 12  1  0
 12 13  1  0
 12 14  1  0
 12 15  1  0
 15 16  1  0
 16 17  1  0
 17 18  1  0
 18 19  1  0
 19 20  1  0
 20 21  1  6
 20 22  1  0
 22 23  1  0
 23 24  1  0
 24 25  1  0
 25 26  1  6
 25 27  1  0
 27 28  1  1
 28 29  2  0
 29 30  1  0
 29 27  1  0
M  RAD  2   9   2  17   2
M  END
>  <fragInfo>  (1) 
27 28 29 30
1 2 3
4
5
6
7 8
9
10
11
12 13 14
15
16
17
18
19
20 21
22
23
24
25 26


>  <torsionInfo>  (1) 
25 27 19 0
2 4 1 2
4 5 2 3
5 6 3 4
6 7 4 5
7 9 5 6
9 10 6 7
10 11 7 8
11 12 8 9
12 15 9 10
15 16 10 11
16 17 11 12
17 18 12 13
18 19 13 14
19 20 14 15
20 22 15 16
22 23 16 17
23 24 17 18
24 25 18 19


>  <atomInfo>  (1) 
1  -0.0627736C 
2  -0.0471324C 
3  -0.0627736C 
4  -0.0509643C 
5  -0.0527983C 
6  -0.0504265C 
7  -0.0411587C 
8  -0.0622342C 
9  -0.0356433C 
10 -0.0471949C 
11 -0.0241391C 
12 0.06263165C 
13 -0.0360796C 
14 -0.0360796C 
15 -0.3752784OA
16 0.05045666C 
17 -0.0127719C 
18 -0.0476424C 
19 -0.0503509C 
20 -0.0442666C 
21 -0.0625095C 
22 -0.0506155C 
23 -0.0505595C 
24 -0.0260929C 
25 0.06395955C 
26 -0.3921788OA
27 0.02377925C 
28 -0.0751816C 
29 -0.0671365C 
30 -0.0432198C 


$$$$
