
     RDKit          2D

 36 40  0  0  0  0  0  0  0  0999 V2000
    0.3943    7.4616    0.0000 C   0  0  0  0  0  0  0  0  0  0  0  0
    1.5090    6.4579    0.0000 C   0  0  0  0  0  0  0  0  0  0  0  0
    2.7225    7.3395    0.0000 C   0  0  0  0  0  0  0  0  0  0  0  0
    2.1191    5.0875    0.0000 C   0  0  0  0  0  3  0  0  0  0  0  0
    2.1191    3.5875    0.0000 C   0  0  0  0  0  0  0  0  0  0  0  0
    1.5090    2.2172    0.0000 C   0  0  0  0  0  0  0  0  0  0  0  0
    0.3943    1.2135    0.0000 C   0  0  0  0  0  3  0  0  0  0  0  0
   -1.0323    0.7500    0.0000 C   0  0  0  0  0  0  0  0  0  0  0  0
   -2.1470   -0.2537    0.0000 C   0  0  0  0  0  0  0  0  0  0  0  0
   -1.8351   -1.7209    0.0000 C   0  0  0  0  0  0  0  0  0  0  0  0
   -0.4086   -2.1844    0.0000 C   0  0  0  0  0  3  0  0  0  0  0  0
   -0.0967   -3.6517    0.0000 C   0  0  0  0  0  3  0  0  0  0  0  0
    1.3299   -4.1152    0.0000 O   0  0  0  0  0  0  0  0  0  0  0  0
    1.2760    0.0000    0.0000 C   0  0  0  0  0  0  0  0  0  0  0  0
    0.3943   -1.2135    0.0000 C   0  0  0  0  0  3  0  0  0  0  0  0
   -1.0323   -0.7500    0.0000 C   0  0  0  0  0  0  0  0  0  0  0  0
   -1.3152   -2.5068    0.0000 C   0  0  0  0  0  0  0  0  0  0  0  0
   -2.7292   -3.0075    0.0000 C   0  0  0  0  0  3  0  0  0  0  0  0
   -4.0831   -2.3618    0.0000 N   0  0  0  0  0  0  0  0  0  0  0  0
   -4.5838   -0.9478    0.0000 C   0  0  0  0  0  0  0  0  0  0  0  0
   -6.0817   -0.8693    0.0000 C   0  0  0  0  0  0  0  0  0  0  0  0
   -3.9380    0.4061    0.0000 C   0  0  0  0  0  0  0  0  0  0  0  0
   -2.5241    0.9068    0.0000 C   0  0  0  0  0  0  0  0  0  0  0  0
   -3.8231    1.6568    0.0000 C   0  0  0  0  0  0  0  0  0  0  0  0
   -4.7048    2.8703    0.0000 C   0  0  0  0  0  0  0  0  0  0  0  0
   -5.0167    4.3375    0.0000 C   0  0  0  0  0  0  0  0  0  0  0  0
   -4.7048    5.8048    0.0000 C   0  0  0  0  0  0  0  0  0  0  0  0
   -3.8231    7.0183    0.0000 C   0  0  0  0  0  0  0  0  0  0  0  0
   -2.5241    7.7683    0.0000 C   0  0  0  0  0  0  0  0  0  0  0  0
   -1.0323    7.9251    0.0000 C   0  0  0  0  0  0  0  0  0  0  0  0
   -1.0323    9.4251    0.0000 C   0  0  0  0  0  0  0  0  0  0  0  0
    0.3943    9.8886    0.0000 C   0  0  0  0  0  0  0  0  0  0  0  0
    1.2760    8.6751    0.0000 C   0  0  0  0  0  0  0  0  0  0  0  0
   -0.1506    8.2116    0.0000 C   0  0  0  0  0  0  0  0  0  0  0  0
    0.8578   11.3152    0.0000 C   0  0  0  0  0  0  0  0  0  0  0  0
    2.3250   11.6271    0.0000 C   0  0  0  0  0  2  0  0  0  0  0  0
  1  2  2  3
  2  3  1  0
  2  4  1  0
  4  5  1  0
  5  6  1  0
  6  7  1  0
  7  8  1  0
  8  9  1  0
  9 10  1  0
 10 11  1  0
 11 12  1  0
 12 13  1  0
  7 14  1  0
 14 15  1  0
 16 15  1  1
 16 17  1  0
 17 18  1  0
 18 19  1  0
 19 20  1  0
 20 21  1  1
 20 22  1  0
 23 22  1  1
 23 24  1  0
 24 25  1  0
 25 26  2  3
 26 27  1  0
 27 28  1  0
 28 29  2  3
 30 29  1  6
 30 31  1  0
 31 32  1  0
 33 32  1  1
 33 34  1  0
 32 35  1  0
 35 36  1  0
 30  1  1  0
 33  1  1  0
 16  8  1  0
 23  8  1  0
 31 34  2  0
M  RAD  7   4   2   7   2  11   2  12   2  15   2  18   2  36   3
M  END
>  <fragInfo>  (1) 
1 2 3 4 5 6 7 8 14 15 16 17 18 19 20 21 22 23 24 25 26 27 28 29 30 31 32 33 34
9
10
11
12 13
35 36


>  <torsionInfo>  (1) 
8 9 0 1
32 35 0 5
9 10 1 2
10 11 2 3
11 12 3 4


>  <atomInfo>  (1) 
1  -0.0525230C 
2  -0.0688793C 
3  -0.0433082C 
4  -0.0136888C 
5  -0.0455478C 
6  -0.0458871C 
7  -0.0170255C 
8  -0.0171788C 
9  -0.0461153C 
10 -0.0469444C 
11 -0.0072793C 
12 0.08331710C 
13 -0.3901204OA
14 -0.0430709C 
15 -0.0342442C 
16 -0.0302418C 
17 -0.0325511C 
18 0.02263281C 
19 -0.3099335NA
20 0.00448920C 
21 -0.0497406C 
22 -0.0343124C 
23 -0.0299870C 
24 -0.0315908C 
25 -0.0879295C 
26 -0.0847413C 
27 -0.0168851C 
28 -0.0838291C 
29 -0.0769654C 
30 0.01989074C 
31 -0.0585559C 
32 -0.0090003C 
33 0.00576563C 
34 -0.0762589C 
35 -0.0423738C 
36 -0.0345443C 


$$$$
