
     RDKit          3D

 23 24  0  0  0  0  0  0  0  0999 V2000
    1.7041   -0.5512    2.2668 C   0  0  0  0  0  0  0  0  0  0  0  0
    1.4657    0.6578    1.3534 C   0  0  1  0  0  0  0  0  0  0  0  0
    2.8154    1.3669    1.2656 C   0  0  0  0  0  0  0  0  0  0  0  0
    3.1891    1.6733   -0.1740 C   0  0  2  0  0  0  0  0  0  0  0  0
    2.2212    2.5317   -0.7302 O   0  0  0  0  0  0  0  0  0  0  0  0
    3.3181    0.4343   -1.0225 C   0  0  2  0  0  0  0  0  0  0  0  0
    3.1010    0.7325   -2.3628 O   0  0  0  0  0  0  0  0  0  0  0  0
    2.2664   -0.5644   -0.5979 C   0  0  1  0  0  0  0  0  0  0  0  0
    2.8206   -1.3505    0.4085 O   0  0  0  0  0  0  0  0  0  0  0  0
    1.0971    0.2348   -0.0439 C   0  0  1  0  0  0  0  0  0  0  0  0
   -0.1509   -0.3533   -0.2154 N   0  0  0  0  0  0  0  0  0  0  0  0
   -0.8297   -0.1945   -1.4191 C   0  0  0  0  0  3  0  0  0  0  0  0
   -1.9714    0.8109   -1.3781 C   0  0  2  0  0  0  0  0  0  0  0  0
   -1.7307    1.8780   -0.3868 C   0  0  0  0  0  0  0  0  0  0  0  0
   -2.3381    2.1049    0.6169 O   0  0  0  0  0  0  0  0  0  0  0  0
   -3.0935    0.0613   -1.0027 O   0  0  0  0  0  0  0  0  0  0  0  0
   -3.0087   -0.0494    0.4026 C   0  0  1  0  0  0  0  0  0  0  0  0
   -4.3297   -0.0847    0.8539 O   0  0  0  0  0  0  0  0  0  0  0  0
   -2.2044   -1.2524    0.7458 C   0  0  2  0  0  0  0  0  0  0  0  0
   -2.6620   -1.7103    1.9999 O   0  0  0  0  0  0  0  0  0  0  0  0
   -0.7405   -1.0785    0.8313 C   0  0  1  0  0  0  0  0  0  0  0  0
   -0.1565   -2.3389    0.9637 O   0  0  0  0  0  0  0  0  0  0  0  0
   -0.7826   -2.9584    1.9537 O   0  0  0  0  0  0  0  0  0  0  0  0
  2  1  1  1
  2  3  1  0
  3  4  1  0
  4  5  1  6
  4  6  1  0
  6  7  1  6
  6  8  1  0
  8  9  1  1
  8 10  1  0
 10 11  1  1
 11 12  1  0
 12 13  1  0
 13 14  1  1
 14 15  2  0
 13 16  1  0
 16 17  1  0
 17 18  1  1
 17 19  1  0
 19 20  1  1
 19 21  1  0
 21 22  1  6
 22 23  1  0
 10  2  1  0
 21 11  1  0
M  RAD  1  12   2
M  END
>  <fragInfo>  (1) 
1 2 3 4 5 6 7 8 9 10
11 12 13 16 17 18 19 20 21
14 15
22 23


>  <torsionInfo>  (1) 
10 11 0 1
13 14 1 2
21 22 1 3


>  <atomInfo>  (1) 
1  -0.0608136C 
2  -0.0233027C 
3  -0.0201658C 
4  0.08280107C 
5  -0.3903155OA
6  0.10723532C 
7  -0.3876532OA
8  0.09825306C 
9  -0.3886687OA
10 0.04396426C 
11 -0.2595669NA
12 0.06445206C 
13 0.13312112C 
14 0.15007556C 
15 -0.3003931OA
16 -0.3374895OA
17 0.18537365C 
18 -0.3656799OA
19 0.14739924C 
20 -0.3834917OA
21 0.17733592C 
22 -0.2170052OA
23 -0.2500794OA


$$$$
