
     RDKit          2D

 78 79  0  0  0  0  0  0  0  0999 V2000
    3.3705    0.0000    0.0000 C   0  0  0  0  0  0  0  0  0  0  0  0
    3.0367   -1.4624    0.0000 O   0  0  0  0  0  0  0  0  0  0  0  0
    2.1015   -2.6351    0.0000 C   0  0  0  0  0  3  0  0  0  0  0  0
    0.7500   -3.2860    0.0000 O   0  0  0  0  0  0  0  0  0  0  0  0
   -0.7500   -3.2860    0.0000 C   0  0  0  0  0  0  0  0  0  0  0  0
   -1.0838   -4.7484    0.0000 C   0  0  0  0  0  0  0  0  0  0  0  0
   -2.1015   -2.6351    0.0000 C   0  0  0  0  0  3  0  0  0  0  0  0
   -3.0367   -1.4624    0.0000 C   0  0  0  0  0  0  0  0  0  0  0  0
   -4.3881   -2.1132    0.0000 N   0  0  0  0  0  0  0  0  0  0  0  0
   -5.6275   -1.2682    0.0000 C   0  0  0  0  0  3  0  0  0  0  0  0
   -6.9790   -1.9191    0.0000 C   0  0  0  0  0  0  0  0  0  0  0  0
   -7.8239   -3.1584    0.0000 C   0  0  0  0  0  0  0  0  0  0  0  0
   -8.4748   -1.8070    0.0000 O   0  0  0  0  0  0  0  0  0  0  0  0
   -3.3705    0.0000    0.0000 C   0  0  0  0  0  3  0  0  0  0  0  0
   -3.0367    1.4624    0.0000 O   0  0  0  0  0  0  0  0  0  0  0  0
   -2.1015    2.6351    0.0000 C   0  0  0  0  0  3  0  0  0  0  0  0
   -0.7500    3.2860    0.0000 C   0  0  0  0  0  3  0  0  0  0  0  0
    0.7500    3.2860    0.0000 C   0  0  0  0  0  0  0  0  0  0  0  0
    1.0838    4.7484    0.0000 C   0  0  0  0  0  0  0  0  0  0  0  0
    2.1015    2.6351    0.0000 N   0  0  0  0  0  0  0  0  0  0  0  0
    3.0367    1.4624    0.0000 C   0  0  0  0  0  0  0  0  0  0  0  0
    4.3881    2.1132    0.0000 C   0  0  0  0  0  0  0  0  0  0  0  0
    4.5002    3.6090    0.0000 F   0  0  0  0  0  0  0  0  0  0  0  0
    5.6275    1.2682    0.0000 C   0  0  0  0  0  3  0  0  0  0  0  0
    6.9790    1.9191    0.0000 O   0  0  0  0  0  0  0  0  0  0  0  0
    8.2183    1.0741    0.0000 C   0  0  0  0  0  3  0  0  0  0  0  0
    9.5698    1.7249    0.0000 O   0  0  0  0  0  0  0  0  0  0  0  0
   10.8091    0.8799    0.0000 C   0  0  0  0  0  0  0  0  0  0  0  0
   12.1606    1.5308    0.0000 C   0  0  0  0  0  0  0  0  0  0  0  0
   13.3999    0.6858    0.0000 C   0  0  0  0  0  0  0  0  0  0  0  0
   14.7514    1.3366    0.0000 O   0  0  0  0  0  0  0  0  0  0  0  0
   10.6970   -0.6159    0.0000 C   0  0  0  0  0  0  0  0  0  0  0  0
   11.9364   -1.4609    0.0000 N   0  0  0  0  0  0  0  0  0  0  0  0
   11.8243   -2.9567    0.0000 C   0  0  0  0  0  0  0  0  0  0  0  0
   10.4728   -3.6075    0.0000 O   0  0  0  0  0  0  0  0  0  0  0  0
   13.0636   -3.8016    0.0000 C   0  0  0  0  0  0  0  0  0  0  0  0
   12.9516   -5.2974    0.0000 C   0  0  0  0  0  0  0  0  0  0  0  0
   14.1909   -6.1424    0.0000 C   0  0  0  0  0  3  0  0  0  0  0  0
   14.0788   -7.6382    0.0000 O   0  0  0  0  0  0  0  0  0  0  0  0
   15.3182   -8.4832    0.0000 C   0  0  0  0  0  3  0  0  0  0  0  0
   15.2061   -9.9790    0.0000 O   0  0  0  0  0  0  0  0  0  0  0  0
   16.4454  -10.8240    0.0000 C   0  0  0  0  0  3  0  0  0  0  0  0
   16.3333  -12.3198    0.0000 C   0  0  0  0  0  0  0  0  0  0  0  0
   17.5727  -13.1648    0.0000 C   0  0  0  0  0  0  0  0  0  0  0  0
   18.9242  -12.5140    0.0000 N   0  0  0  0  0  0  0  0  0  0  0  0
   17.4606  -14.6606    0.0000 C   0  0  0  0  0  0  0  0  0  0  0  0
   18.7000  -15.5056    0.0000 C   0  0  0  0  0  2  0  0  0  0  0  0
   16.1092  -15.3114    0.0000 C   0  0  0  0  0  0  0  0  0  0  0  0
   15.9971  -16.8072    0.0000 C   0  0  0  0  0  3  0  0  0  0  0  0
   14.6456  -17.4580    0.0000 N   0  0  0  0  0  0  0  0  0  0  0  0
   14.5335  -18.9539    0.0000 O   0  0  0  0  0  0  0  0  0  0  0  0
   13.1821  -19.6047    0.0000 N   0  0  0  0  0  0  0  0  0  0  0  0
   13.0700  -21.1005    0.0000 C   0  0  0  0  0  3  0  0  0  0  0  0
   11.7185  -21.7513    0.0000 C   0  0  0  0  0  3  0  0  0  0  0  0
   11.6064  -23.2471    0.0000 C   0  0  0  0  0  3  0  0  0  0  0  0
   10.2550  -23.8979    0.0000 C   0  0  0  0  0  0  0  0  0  0  0  0
   10.1429  -25.3937    0.0000 N   0  0  0  0  0  1  0  0  0  0  0  0
    9.0156  -23.0530    0.0000 O   0  0  0  0  0  0  0  0  0  0  0  0
    7.6641  -23.7038    0.0000 C   0  0  0  0  0  0  0  0  0  0  0  0
    6.4248  -22.8588    0.0000 C   0  0  0  0  0  3  0  0  0  0  0  0
    5.0733  -23.5096    0.0000 C   0  0  0  0  0  0  0  0  0  0  0  0
    3.8340  -22.6647    0.0000 O   0  0  0  0  0  0  0  0  0  0  0  0
    2.4825  -23.3155    0.0000 C   0  0  0  0  0  3  0  0  0  0  0  0
    1.2432  -22.4705    0.0000 C   0  0  0  0  0  0  0  0  0  0  0  0
   -0.1083  -23.1213    0.0000 C   0  0  0  0  0  2  0  0  0  0  0  0
    1.3553  -20.9747    0.0000 N   0  0  0  0  0  0  0  0  0  0  0  0
    0.1159  -20.1297    0.0000 C   0  0  0  0  0  0  0  0  0  0  0  0
    0.2280  -18.6339    0.0000 C   0  0  0  0  0  0  0  0  0  0  0  0
   -1.2356  -20.7805    0.0000 C   0  0  0  0  0  0  0  0  0  0  0  0
   -2.4749  -19.9356    0.0000 N   0  0  0  0  0  0  0  0  0  0  0  0
   -1.3476  -22.2763    0.0000 N   0  0  0  0  0  4  0  0  0  0  0  0
    0.1482  -22.3884    0.0000 C   0  0  0  0  0  2  0  0  0  0  0  0
   -1.4597  -23.7722    0.0000 F   0  0  0  0  0  0  0  0  0  0  0  0
   -2.8435  -22.1642    0.0000 C   0  0  0  0  0  3  0  0  0  0  0  0
   -3.6884  -23.4036    0.0000 C   0  0  0  0  0  3  0  0  0  0  0  0
   -5.1842  -23.2915    0.0000 C   0  0  0  0  0  0  0  0  0  0  0  0
   -6.0292  -24.5309    0.0000 N   0  0  0  0  0  0  0  0  0  0  0  0
   -7.5250  -24.4188    0.0000 N   0  0  0  0  0  0  0  0  0  0  0  0
  1  2  1  0
  2  3  1  0
  3  4  1  0
  4  5  1  0
  5  6  1  6
  5  7  1  0
  7  8  1  0
  8  9  1  1
  9 10  1  0
 10 11  1  0
 11 12  1  0
 11 13  1  0
  8 14  1  0
 14 15  1  0
 15 16  1  0
 16 17  1  0
 17 18  1  0
 18 19  1  6
 18 20  1  0
 20 21  1  0
 21 22  1  0
 22 23  1  6
 22 24  1  0
 24 25  1  0
 25 26  1  0
 26 27  1  0
 27 28  1  0
 28 29  1  6
 29 30  1  0
 30 31  1  0
 28 32  1  0
 32 33  1  0
 33 34  1  0
 34 35  1  1
 34 36  1  0
 36 37  1  0
 37 38  1  0
 38 39  1  0
 39 40  1  0
 40 41  1  0
 41 42  1  0
 42 43  1  0
 43 44  1  0
 44 45  1  0
 44 46  1  0
 46 47  1  6
 46 48  1  0
 48 49  1  0
 49 50  1  0
 50 51  1  0
 51 52  1  0
 52 53  1  0
 53 54  1  0
 54 55  1  0
 55 56  1  0
 56 57  1  6
 56 58  1  0
 58 59  1  0
 59 60  1  0
 60 61  1  0
 61 62  1  0
 62 63  1  0
 63 64  1  0
 64 65  1  6
 64 66  1  0
 66 67  1  0
 67 68  1  1
 67 69  1  0
 69 70  1  1
 69 71  1  0
 71 72  1  0
 71 73  1  0
 71 74  1  0
 74 75  1  0
 75 76  1  0
 76 77  1  0
 77 78  1  0
 21  1  1  1
 13 12  1  0
M  RAD  8   3   2   7   2  10   2  14   2  16   2  17   2  24   2  26   2
M  RAD  8  38   2  40   2  42   2  47   3  49   2  53   2  54   2  55   2
M  CHG  2  57   1  71   1
M  RAD  7  57   2  60   2  63   2  65   3  72   3  74   2  75   2
M  END
>  <fragInfo>  (1) 
1 2 3 4 5 6 7 8 14 15 16 17 18 19 20 21
9
10
11 12 13
22 23
24
25
26
27
28
29
30 31
32
33
34 35
36
37
38
39
40
41
42
43
44 45
46 47
48
49
50
51
52
53
54
55
56 57
58
59
60
61
62
63
64 65
66
67 68
69 70
71 72 73
74
75
76
77 78


>  <torsionInfo>  (1) 
8 9 0 1
21 22 0 4
9 10 1 2
10 11 2 3
22 24 4 5
24 25 5 6
25 26 6 7
26 27 7 8
27 28 8 9
28 29 9 10
28 32 9 12
29 30 10 11
32 33 12 13
33 34 13 14
34 36 14 15
36 37 15 16
37 38 16 17
38 39 17 18
39 40 18 19
40 41 19 20
41 42 20 21
42 43 21 22
43 44 22 23
44 46 23 24
46 48 24 25
48 49 25 26
49 50 26 27
50 51 27 28
51 52 28 29
52 53 29 30
53 54 30 31
54 55 31 32
55 56 32 33
56 58 33 34
58 59 34 35
59 60 35 36
60 61 36 37
61 62 37 38
62 63 38 39
63 64 39 40
64 66 40 41
66 67 41 42
67 69 42 43
69 71 43 44
71 74 44 45
74 75 45 46
75 76 46 47
76 77 47 48


>  <atomInfo>  (1) 
1  0.06827552C 
2  -0.3462080OA
3  0.20927221C 
4  -0.3445457OA
5  0.06287765C 
6  -0.0382006C 
7  0.00979633C 
8  0.04180934C 
9  -0.3041115NA
10 0.05387414C 
11 0.09782892C 
12 0.07501750C 
13 -0.3713638OA
14 0.10134227C 
15 -0.3674971OA
16 0.08927950C 
17 0.00964634C 
18 0.01015462C 
19 -0.0493656C 
20 -0.3062719NA
21 0.06495204C 
22 0.14637864C 
23 -0.2426784F 
24 0.12280794C 
25 -0.3385823OA
26 0.20973367C 
27 -0.3431773OA
28 0.07556962C 
29 -0.0019949C 
30 0.04557681C 
31 -0.3962738OA
32 0.02410813C 
33 -0.2897465NA
34 0.10459399C 
35 -0.3786184OA
36 -0.0108407C 
37 -0.0202665C 
38 0.08729444C 
39 -0.3418671OA
40 0.20967443C 
41 -0.3418056OA
42 0.08868797C 
43 -0.0084868C 
44 0.00962815C 
45 -0.3273288NA
46 -0.0210518C 
47 -0.0301425C 
48 -0.0291678C 
49 0.05209645C 
50 -0.1778139NA
51 -0.2134506OA
52 -0.1775039NA
53 0.05583635C 
54 -0.0043723C 
55 0.07417127C 
56 0.38362494C 
57 0.45657672N 
58 -0.3143408OA
59 0.05910447C 
60 0.01319742C 
61 0.05262008C 
62 -0.3734165OA
63 0.10072526C 
64 0.03968412C 
65 -0.0138096C 
66 -0.3017989NA
67 0.07487450C 
68 -0.0423241C 
69 0.19217371C 
70 -0.2774577NA
71 -0.0907003N 
72 0.24957133C 
73 -0.0011103F 
74 0.18712417C 
75 0.04453170C 
76 0.01918648C 
77 -0.2599815NA
78 -0.2714486NA


$$$$
