
     RDKit          3D

 31 30  0  0  0  0  0  0  0  0999 V2000
    4.0271    2.7161   -1.2922 C   0  0  0  0  0  0  0  0  0  0  0  0
    4.3472    3.4212   -0.2301 C   0  0  0  0  0  0  0  0  0  0  0  0
    4.1591    4.9025   -0.2901 C   0  0  0  0  0  0  0  0  0  0  0  0
    4.8842    2.8047    1.0165 C   0  0  0  0  0  0  0  0  0  0  0  0
    4.9712    1.3135    0.8046 C   0  0  0  0  0  0  0  0  0  0  0  0
    5.8985    0.9869   -0.3673 C   0  0  0  0  0  0  0  0  0  0  0  0
    5.9506   -0.5081   -0.5361 C   0  0  1  0  0  0  0  0  0  0  0  0
    6.8497   -0.8840   -1.6767 C   0  0  0  0  0  0  0  0  0  0  0  0
    6.3250   -1.2043    0.7452 C   0  0  0  0  0  3  0  0  0  0  0  0
    5.2630   -0.8492    1.7876 C   0  0  0  0  0  0  0  0  0  0  0  0
    3.9178   -1.3376    1.2670 C   0  0  0  0  0  0  0  0  0  0  0  0
    3.9237   -2.8274    1.0465 C   0  0  2  0  0  0  0  0  0  0  0  0
    4.9516   -3.2792    0.0532 C   0  0  0  0  0  0  0  0  0  0  0  0
    2.5427   -3.2803    0.6858 C   0  0  0  0  0  3  0  0  0  0  0  0
    1.6186   -2.9211    1.8356 C   0  0  0  0  0  0  0  0  0  0  0  0
    0.2216   -3.3784    1.4725 C   0  0  0  0  0  0  0  0  0  0  0  0
   -0.1788   -2.6559    0.2039 C   0  0  0  0  0  0  0  0  0  0  0  0
   -0.1415   -1.1755    0.4995 C   0  0  0  0  0  3  0  0  0  0  0  0
   -0.5297   -0.3596   -0.7174 C   0  0  0  0  0  3  0  0  0  0  0  0
   -2.0575   -0.2421   -0.6859 C   0  0  0  0  0  3  0  0  0  0  0  0
   -2.6073   -1.5420   -1.1694 C   0  0  0  0  0  0  0  0  0  0  0  0
   -4.0969   -1.6037   -1.2037 C   0  0  0  0  0  0  0  0  0  0  0  0
   -4.7420   -1.3959    0.1400 C   0  0  0  0  0  0  0  0  0  0  0  0
   -4.4284   -0.0792    0.7598 C   0  0  0  0  0  0  0  0  0  0  0  0
   -4.9033    1.0621   -0.1324 C   0  0  0  0  0  0  0  0  0  0  0  0
   -6.4140    0.9713   -0.3420 C   0  0  0  0  0  3  0  0  0  0  0  0
   -6.8025    2.1354   -1.2346 C   0  0  2  0  0  0  0  0  0  0  0  0
   -6.4316    3.4493   -0.5592 C   0  0  0  0  0  0  0  0  0  0  0  0
   -8.3102    2.1421   -1.4474 C   0  0  0  0  0  3  0  0  0  0  0  0
   -9.0091    2.2777   -0.1542 C   0  0  0  0  0  0  0  0  0  0  0  0
   -9.1989    1.3407    0.5941 O   0  0  0  0  0  0  0  0  0  0  0  0
  1  2  2  0
  2  3  1  0
  2  4  1  0
  4  5  1  0
  5  6  1  0
  6  7  1  0
  7  8  1  6
  7  9  1  0
  9 10  1  0
 10 11  1  0
 11 12  1  0
 12 13  1  6
 12 14  1  0
 14 15  1  0
 15 16  1  0
 16 17  1  0
 17 18  1  0
 18 19  1  0
 19 20  1  0
 20 21  1  0
 21 22  1  0
 22 23  1  0
 23 24  1  0
 24 25  1  0
 25 26  1  0
 26 27  1  0
 27 28  1  1
 27 29  1  0
 29 30  1  0
 30 31  2  0
M  RAD  7   9   2  14   2  18   2  19   2  20   2  26   2  29   2
M  END
>  <fragInfo>  (1) 
1 2 3
4
5
6
7 8
9
10
11
12 13
14
15
16
17
18
19
20
21
22
23
24
25
26
27 28
29
30 31


>  <torsionInfo>  (1) 
2 4 0 1
4 5 1 2
5 6 2 3
6 7 3 4
7 9 4 5
9 10 5 6
10 11 6 7
11 12 7 8
12 14 8 9
14 15 9 10
15 16 10 11
16 17 11 12
17 18 12 13
18 19 13 14
19 20 14 15
20 21 15 16
21 22 16 17
22 23 17 18
23 24 18 19
24 25 19 20
25 26 20 21
26 27 21 22
27 29 22 23
29 30 23 24


>  <atomInfo>  (1) 
1  -0.1001409C 
2  -0.0805164C 
3  -0.0442043C 
4  -0.0325667C 
5  -0.0493146C 
6  -0.0501318C 
7  -0.0411494C 
8  -0.0622340C 
9  -0.0357401C 
10 -0.0496542C 
11 -0.0501522C 
12 -0.0411502C 
13 -0.0622340C 
14 -0.0357502C 
15 -0.0499078C 
16 -0.0527370C 
17 -0.0498760C 
18 -0.0348962C 
19 -0.0318006C 
20 -0.0348964C 
21 -0.0498865C 
22 -0.0530210C 
23 -0.0532850C 
24 -0.0530212C 
25 -0.0498941C 
26 -0.0350246C 
27 -0.0309716C 
28 -0.0615289C 
29 0.02711385C 
30 0.12356747C 
31 -0.3030513OA


$$$$
