
     RDKit          3D

 22 22  0  0  0  0  0  0  0  0999 V2000
   -0.8151   -1.4386    0.1682 C   0  0  0  0  0  0  0  0  0  0  0  0
   -1.9707   -1.7480   -0.4313 C   0  0  0  0  0  0  0  0  0  0  0  0
   -3.0814   -2.4246    0.1830 C   0  0  0  0  0  0  0  0  0  0  0  0
   -3.4560   -3.5397   -0.2396 O   0  0  0  0  0  0  0  0  0  0  0  0
   -3.7365   -1.7990    1.2721 N   0  0  0  0  0  0  0  0  0  0  0  0
   -3.5694   -0.4741    1.6707 C   0  0  0  0  0  0  0  0  0  0  0  0
   -3.8492    0.6247    1.0568 C   0  0  0  0  0  0  0  0  0  0  0  0
   -4.4364    0.8321   -0.2651 C   0  0  1  0  0  0  0  0  0  0  0  0
   -5.6537    1.7443   -0.0835 C   0  0  0  0  0  0  0  0  0  0  0  0
   -3.4893    1.6251   -1.0693 N   0  0  0  0  0  0  0  0  0  0  0  0
   -2.2731    0.9368   -1.3961 C   0  0  0  0  0  0  0  0  0  0  0  0
   -1.2308    1.1314   -0.6772 N   0  0  0  0  0  0  0  0  0  0  0  0
    0.0178    0.4997   -0.9146 C   0  0  0  0  0  0  0  0  0  0  0  0
    0.2603   -0.7523   -0.5180 C   0  0  0  0  0  0  0  0  0  0  0  0
    1.5437   -1.2727   -0.8046 N   0  0  0  0  0  0  0  0  0  0  0  0
    2.6782   -1.0716    0.0052 C   0  0  0  0  0  0  0  0  0  0  0  0
    3.4020    0.0503   -0.0557 C   0  0  0  0  0  0  0  0  0  0  0  0
    4.5633    0.2053    0.8028 C   0  0  0  0  0  0  0  0  0  0  0  0
    5.6815    0.6315    0.2497 C   0  0  0  0  0  0  0  0  0  0  0  0
    6.8191    1.1197   -0.1602 C   0  0  0  0  0  0  0  0  0  0  0  0
    6.7838    2.1308   -1.1582 N   0  0  0  0  0  0  0  0  0  0  0  0
    5.8121    2.9887   -1.2042 C   0  0  0  0  0  0  0  0  0  0  0  0
  1  2  2  3
  2  3  1  0
  3  4  2  0
  3  5  1  0
  5  6  1  0
  6  7  2  3
  7  8  1  0
  8  9  1  1
  8 10  1  0
 10 11  1  0
 11 12  2  3
 12 13  1  0
 13 14  2  3
 14 15  1  0
 15 16  1  0
 16 17  2  3
 17 18  1  0
 18 19  2  0
 19 20  2  0
 20 21  1  0
 21 22  2  0
 14  1  1  0
M  END
>  <fragInfo>  (1) 
1 2 3 4 5 6 7 8 9 10 11 12 13 14
15
16 17
18 19 20
21 22


>  <torsionInfo>  (1) 
14 15 0 1
15 16 1 2
17 18 2 3
20 21 3 4


>  <atomInfo>  (1) 
1  -0.0315704C 
2  0.00534365C 
3  0.24746173C 
4  -0.2696410OA
5  -0.3293615N 
6  0.00206491C 
7  -0.0464200C 
8  0.04411408C 
9  -0.0410853C 
10 -0.3701109N 
11 0.08838925C 
12 -0.2451309NA
13 0.05203677C 
14 0.05678610C 
15 -0.3604133N 
16 0.00165923C 
17 -0.0383554C 
18 -0.0169234C 
19 -0.1007974C 
20 0.06787727C 
21 -0.2641624NA
22 -0.0088750C 


$$$$
