
     RDKit          3D

 24 25  0  0  0  0  0  0  0  0999 V2000
    2.2299    1.5128    1.2487 C   0  0  0  0  0  0  0  0  0  0  0  0
    1.8126    0.9894   -0.1060 C   0  0  1  0  0  0  0  0  0  0  0  0
    2.8995    1.2040   -1.1371 C   0  0  0  0  0  0  0  0  0  0  0  0
    4.1073    0.4164   -0.6825 C   0  0  2  0  0  0  0  0  0  0  0  0
    5.1936    0.5901   -1.5499 O   0  0  0  0  0  0  0  0  0  0  0  0
    3.7935   -1.0529   -0.5853 C   0  0  2  0  0  0  0  0  0  0  0  0
    3.4578   -1.5958   -1.8195 O   0  0  0  0  0  0  0  0  0  0  0  0
    2.6661   -1.3071    0.3760 C   0  0  1  0  0  0  0  0  0  0  0  0
    3.0593   -0.9047    1.6425 O   0  0  0  0  0  0  0  0  0  0  0  0
    1.4833   -0.4808   -0.0426 C   0  0  1  0  0  0  0  0  0  0  0  0
    0.3625   -0.6285    0.8759 N   0  0  0  0  0  0  0  0  0  0  0  0
   -0.7370    0.1034    0.3163 C   0  0  1  0  0  0  0  0  0  0  0  0
   -1.3255   -0.5577   -0.9166 C   0  0  0  0  0  0  0  0  0  0  0  0
   -2.7498   -0.0218   -1.0019 C   0  0  1  0  0  0  0  0  0  0  0  0
   -2.7176    1.3277   -0.6986 O   0  0  0  0  0  0  0  0  0  0  0  0
   -3.2731   -0.2067   -2.3940 C   0  0  0  0  0  0  0  0  0  0  0  0
   -2.3821    0.4573   -3.2531 O   0  0  0  0  0  0  0  0  0  0  0  0
   -3.5459   -0.7307    0.0530 C   0  0  1  0  0  0  0  0  0  0  0  0
   -3.5323   -2.1210   -0.1338 O   0  0  0  0  0  0  0  0  0  0  0  0
   -2.9392   -0.4634    1.3972 C   0  0  2  0  0  0  0  0  0  0  0  0
   -3.9322    0.1596    2.1710 O   0  0  0  0  0  0  0  0  0  0  0  0
   -1.7897    0.4945    1.3024 C   0  0  1  0  0  0  0  0  0  0  0  0
   -1.2387    0.7677    2.5373 O   0  0  0  0  0  0  0  0  0  0  0  0
   -0.9024    2.0482    2.5348 O   0  0  0  0  0  0  0  0  0  0  0  0
  2  1  1  1
  2  3  1  0
  3  4  1  0
  4  5  1  6
  4  6  1  0
  6  7  1  6
  6  8  1  0
  8  9  1  1
  8 10  1  0
 10 11  1  1
 12 11  1  1
 12 13  1  0
 13 14  1  0
 14 15  1  1
 14 16  1  0
 16 17  1  0
 14 18  1  0
 18 19  1  6
 18 20  1  0
 20 21  1  1
 20 22  1  0
 22 23  1  1
 23 24  1  0
 10  2  1  0
 22 12  1  0
M  END
>  <fragInfo>  (1) 
1 2 3 4 5 6 7 8 9 10
11
12 13 14 15 18 19 20 21 22
16 17
23 24


>  <torsionInfo>  (1) 
10 11 0 1
11 12 1 2
14 16 2 3
22 23 2 4


>  <atomInfo>  (1) 
1  -0.0608233C 
2  -0.0236278C 
3  -0.0201755C 
4  0.08280077C 
5  -0.3903155OA
6  0.10722523C 
7  -0.3876533OA
8  0.09792987C 
9  -0.3886791OA
10 0.03843587C 
11 -0.3053974NA
12 0.04218563C 
13 -0.0009416C 
14 0.11761903C 
15 -0.3845999OA
16 0.07461792C 
17 -0.3932744OA
18 0.11355220C 
19 -0.3872026OA
20 0.11360972C 
21 -0.3873885OA
22 0.13642616C 
23 -0.2315762OA
24 -0.2513804OA


$$$$
